
---------- Begin Simulation Statistics ----------
sim_seconds                                  0.000077                       # Number of seconds simulated
sim_ticks                                    77198500                       # Number of ticks simulated
final_tick                                   77198500                       # Number of ticks from beginning of simulation (restored from checkpoints and never reset)
sim_freq                                 1000000000000                       # Frequency of simulated ticks
host_inst_rate                                  84368                       # Simulator instruction rate (inst/s)
host_op_rate                                   150175                       # Simulator op (including micro ops) rate (op/s)
host_tick_rate                             1180370744                       # Simulator tick rate (ticks/s)
host_mem_usage                                 721380                       # Number of bytes of host memory used
host_seconds                                     0.07                       # Real time elapsed on the host
sim_insts                                        5517                       # Number of instructions simulated
sim_ops                                          9821                       # Number of ops (including micro ops) simulated
system.voltage_domain.voltage                       1                       # Voltage in Volts
system.clk_domain.clock                          1000                       # Clock period in ticks
system.mem_ctrls.pwrStateResidencyTicks::UNDEFINED     77198500                       # Cumulative time (in ticks) in various power states
system.mem_ctrls.bytes_read::cpu.inst           14656                       # Number of bytes read from this memory
system.mem_ctrls.bytes_read::cpu.data            8640                       # Number of bytes read from this memory
system.mem_ctrls.bytes_read::total              23296                       # Number of bytes read from this memory
system.mem_ctrls.bytes_inst_read::cpu.inst        14656                       # Number of instructions bytes read from this memory
system.mem_ctrls.bytes_inst_read::total         14656                       # Number of instructions bytes read from this memory
system.mem_ctrls.num_reads::cpu.inst              229                       # Number of read requests responded to by this memory
system.mem_ctrls.num_reads::cpu.data              135                       # Number of read requests responded to by this memory
system.mem_ctrls.num_reads::total                 364                       # Number of read requests responded to by this memory
system.mem_ctrls.bw_read::cpu.inst          189848248                       # Total read bandwidth from this memory (bytes/s)
system.mem_ctrls.bw_read::cpu.data          111919273                       # Total read bandwidth from this memory (bytes/s)
system.mem_ctrls.bw_read::total             301767521                       # Total read bandwidth from this memory (bytes/s)
system.mem_ctrls.bw_inst_read::cpu.inst     189848248                       # Instruction read bandwidth from this memory (bytes/s)
system.mem_ctrls.bw_inst_read::total        189848248                       # Instruction read bandwidth from this memory (bytes/s)
system.mem_ctrls.bw_total::cpu.inst         189848248                       # Total bandwidth to/from this memory (bytes/s)
system.mem_ctrls.bw_total::cpu.data         111919273                       # Total bandwidth to/from this memory (bytes/s)
system.mem_ctrls.bw_total::total            301767521                       # Total bandwidth to/from this memory (bytes/s)
system.pwrStateResidencyTicks::UNDEFINED     77198500                       # Cumulative time (in ticks) in various power states
system.cpu_voltage_domain.voltage                   1                       # Voltage in Volts
system.cpu_clk_domain.clock                       500                       # Clock period in ticks
system.cpu.dtb.walker.pwrStateResidencyTicks::UNDEFINED     77198500                       # Cumulative time (in ticks) in various power states
system.cpu.dtb.rdAccesses                         923                       # TLB accesses on read requests
system.cpu.dtb.wrAccesses                         883                       # TLB accesses on write requests
system.cpu.dtb.rdMisses                             9                       # TLB misses on read requests
system.cpu.dtb.wrMisses                             7                       # TLB misses on write requests
system.cpu.apic_clk_domain.clock                 8000                       # Clock period in ticks
system.cpu.interrupts.pwrStateResidencyTicks::UNDEFINED     77198500                       # Cumulative time (in ticks) in various power states
system.cpu.itb.walker.pwrStateResidencyTicks::UNDEFINED     77198500                       # Cumulative time (in ticks) in various power states
system.cpu.itb.rdAccesses                           0                       # TLB accesses on read requests
system.cpu.itb.wrAccesses                        7020                       # TLB accesses on write requests
system.cpu.itb.rdMisses                             0                       # TLB misses on read requests
system.cpu.itb.wrMisses                            31                       # TLB misses on write requests
system.cpu.workload.numSyscalls                    11                       # Number of system calls
system.cpu.pwrStateResidencyTicks::ON        77198500                       # Cumulative time (in ticks) in various power states
system.cpu.numCycles                           154397                       # number of cpu cycles simulated
system.cpu.numWorkItemsStarted                      0                       # number of work items this cpu started
system.cpu.numWorkItemsCompleted                    0                       # number of work items this cpu completed
system.cpu.committedInsts                        5517                       # Number of instructions committed
system.cpu.committedOps                          9821                       # Number of ops (including micro ops) committed
system.cpu.num_int_alu_accesses                  9693                       # Number of integer alu accesses
system.cpu.num_fp_alu_accesses                      0                       # Number of float alu accesses
system.cpu.num_vec_alu_accesses                     0                       # Number of vector alu accesses
system.cpu.num_func_calls                         203                       # number of times a function call or return occured
system.cpu.num_conditional_control_insts          967                       # number of instructions that are conditional controls
system.cpu.num_int_insts                         9693                       # number of integer instructions
system.cpu.num_fp_insts                             0                       # number of float instructions
system.cpu.num_vec_insts                            0                       # number of vector instructions
system.cpu.num_int_register_reads               18156                       # number of times the integer registers were read
system.cpu.num_int_register_writes               7576                       # number of times the integer registers were written
system.cpu.num_fp_register_reads                    0                       # number of times the floating registers were read
system.cpu.num_fp_register_writes                   0                       # number of times the floating registers were written
system.cpu.num_vec_register_reads                   0                       # number of times the vector registers were read
system.cpu.num_vec_register_writes                  0                       # number of times the vector registers were written
system.cpu.num_cc_register_reads                 6820                       # number of times the CC registers were read
system.cpu.num_cc_register_writes                3859                       # number of times the CC registers were written
system.cpu.num_mem_refs                          1806                       # number of memory refs
system.cpu.num_load_insts                         923                       # Number of load instructions
system.cpu.num_store_insts                        883                       # Number of store instructions
system.cpu.num_idle_cycles                          0                       # Number of idle cycles
system.cpu.num_busy_cycles                     154397                       # Number of busy cycles
system.cpu.not_idle_fraction                        1                       # Percentage of non-idle cycles
system.cpu.idle_fraction                            0                       # Percentage of idle cycles
system.cpu.Branches                              1257                       # Number of branches fetched
system.cpu.op_class::No_OpClass                     1      0.01%      0.01% # Class of executed instruction
system.cpu.op_class::IntAlu                      7997     81.43%     81.44% # Class of executed instruction
system.cpu.op_class::IntMult                       10      0.10%     81.54% # Class of executed instruction
system.cpu.op_class::IntDiv                         7      0.07%     81.61% # Class of executed instruction
system.cpu.op_class::FloatAdd                       0      0.00%     81.61% # Class of executed instruction
system.cpu.op_class::FloatCmp                       0      0.00%     81.61% # Class of executed instruction
system.cpu.op_class::FloatCvt                       0      0.00%     81.61% # Class of executed instruction
system.cpu.op_class::FloatMult                      0      0.00%     81.61% # Class of executed instruction
system.cpu.op_class::FloatMultAcc                   0      0.00%     81.61% # Class of executed instruction
system.cpu.op_class::FloatDiv                       0      0.00%     81.61% # Class of executed instruction
system.cpu.op_class::FloatMisc                      0      0.00%     81.61% # Class of executed instruction
system.cpu.op_class::FloatSqrt                      0      0.00%     81.61% # Class of executed instruction
system.cpu.op_class::SimdAdd                        0      0.00%     81.61% # Class of executed instruction
system.cpu.op_class::SimdAddAcc                     0      0.00%     81.61% # Class of executed instruction
system.cpu.op_class::SimdAlu                        0      0.00%     81.61% # Class of executed instruction
system.cpu.op_class::SimdCmp                        0      0.00%     81.61% # Class of executed instruction
system.cpu.op_class::SimdCvt                        0      0.00%     81.61% # Class of executed instruction
system.cpu.op_class::SimdMisc                       0      0.00%     81.61% # Class of executed instruction
system.cpu.op_class::SimdMult                       0      0.00%     81.61% # Class of executed instruction
system.cpu.op_class::SimdMultAcc                    0      0.00%     81.61% # Class of executed instruction
system.cpu.op_class::SimdShift                      0      0.00%     81.61% # Class of executed instruction
system.cpu.op_class::SimdShiftAcc                   0      0.00%     81.61% # Class of executed instruction
system.cpu.op_class::SimdSqrt                       0      0.00%     81.61% # Class of executed instruction
system.cpu.op_class::SimdFloatAdd                   0      0.00%     81.61% # Class of executed instruction
system.cpu.op_class::SimdFloatAlu                   0      0.00%     81.61% # Class of executed instruction
system.cpu.op_class::SimdFloatCmp                   0      0.00%     81.61% # Class of executed instruction
system.cpu.op_class::SimdFloatCvt                   0      0.00%     81.61% # Class of executed instruction
system.cpu.op_class::SimdFloatDiv                   0      0.00%     81.61% # Class of executed instruction
system.cpu.op_class::SimdFloatMisc                  0      0.00%     81.61% # Class of executed instruction
system.cpu.op_class::SimdFloatMult                  0      0.00%     81.61% # Class of executed instruction
system.cpu.op_class::SimdFloatMultAcc               0      0.00%     81.61% # Class of executed instruction
system.cpu.op_class::SimdFloatSqrt                  0      0.00%     81.61% # Class of executed instruction
system.cpu.op_class::MemRead                      923      9.40%     91.01% # Class of executed instruction
system.cpu.op_class::MemWrite                     883      8.99%    100.00% # Class of executed instruction
system.cpu.op_class::FloatMemRead                   0      0.00%    100.00% # Class of executed instruction
system.cpu.op_class::FloatMemWrite                  0      0.00%    100.00% # Class of executed instruction
system.cpu.op_class::IprAccess                      0      0.00%    100.00% # Class of executed instruction
system.cpu.op_class::InstPrefetch                   0      0.00%    100.00% # Class of executed instruction
system.cpu.op_class::total                       9821                       # Class of executed instruction
system.cpu.dcache.tags.pwrStateResidencyTicks::UNDEFINED     77198500                       # Cumulative time (in ticks) in various power states
system.cpu.dcache.tags.tagsinuse            75.602286                       # Cycle average of tags in use
system.cpu.dcache.tags.total_refs                1806                       # Total number of references to valid blocks.
system.cpu.dcache.tags.sampled_refs               135                       # Sample count of references to valid blocks.
system.cpu.dcache.tags.avg_refs             13.377778                       # Average number of references to valid blocks.
system.cpu.dcache.tags.warmup_cycle            766500                       # Cycle when the warmup percentage was hit.
system.cpu.dcache.tags.occ_blocks::cpu.data    75.602286                       # Average occupied blocks per requestor
system.cpu.dcache.tags.occ_percent::cpu.data     0.073830                       # Average percentage of cache occupancy
system.cpu.dcache.tags.occ_percent::total     0.073830                       # Average percentage of cache occupancy
system.cpu.dcache.tags.occ_task_id_blocks::1024          135                       # Occupied blocks per task id
system.cpu.dcache.tags.age_task_id_blocks_1024::0           11                       # Occupied blocks per task id
system.cpu.dcache.tags.age_task_id_blocks_1024::1          124                       # Occupied blocks per task id
system.cpu.dcache.tags.occ_task_id_percent::1024     0.131836                       # Percentage of cache occupancy per task id
system.cpu.dcache.tags.tag_accesses              3747                       # Number of tag accesses
system.cpu.dcache.tags.data_accesses             3747                       # Number of data accesses
system.cpu.dcache.pwrStateResidencyTicks::UNDEFINED     77198500                       # Cumulative time (in ticks) in various power states
system.cpu.dcache.ReadReq_hits::cpu.data          866                       # number of ReadReq hits
system.cpu.dcache.ReadReq_hits::total             866                       # number of ReadReq hits
system.cpu.dcache.WriteReq_hits::cpu.data          805                       # number of WriteReq hits
system.cpu.dcache.WriteReq_hits::total            805                       # number of WriteReq hits
system.cpu.dcache.demand_hits::cpu.data          1671                       # number of demand (read+write) hits
system.cpu.dcache.demand_hits::total             1671                       # number of demand (read+write) hits
system.cpu.dcache.overall_hits::cpu.data         1671                       # number of overall hits
system.cpu.dcache.overall_hits::total            1671                       # number of overall hits
system.cpu.dcache.ReadReq_misses::cpu.data           57                       # number of ReadReq misses
system.cpu.dcache.ReadReq_misses::total            57                       # number of ReadReq misses
system.cpu.dcache.WriteReq_misses::cpu.data           78                       # number of WriteReq misses
system.cpu.dcache.WriteReq_misses::total           78                       # number of WriteReq misses
system.cpu.dcache.demand_misses::cpu.data          135                       # number of demand (read+write) misses
system.cpu.dcache.demand_misses::total            135                       # number of demand (read+write) misses
system.cpu.dcache.overall_misses::cpu.data          135                       # number of overall misses
system.cpu.dcache.overall_misses::total           135                       # number of overall misses
system.cpu.dcache.ReadReq_miss_latency::cpu.data     14547000                       # number of ReadReq miss cycles
system.cpu.dcache.ReadReq_miss_latency::total     14547000                       # number of ReadReq miss cycles
system.cpu.dcache.WriteReq_miss_latency::cpu.data     12932000                       # number of WriteReq miss cycles
system.cpu.dcache.WriteReq_miss_latency::total     12932000                       # number of WriteReq miss cycles
system.cpu.dcache.demand_miss_latency::cpu.data     27479000                       # number of demand (read+write) miss cycles
system.cpu.dcache.demand_miss_latency::total     27479000                       # number of demand (read+write) miss cycles
system.cpu.dcache.overall_miss_latency::cpu.data     27479000                       # number of overall miss cycles
system.cpu.dcache.overall_miss_latency::total     27479000                       # number of overall miss cycles
system.cpu.dcache.ReadReq_accesses::cpu.data          923                       # number of ReadReq accesses(hits+misses)
system.cpu.dcache.ReadReq_accesses::total          923                       # number of ReadReq accesses(hits+misses)
system.cpu.dcache.WriteReq_accesses::cpu.data          883                       # number of WriteReq accesses(hits+misses)
system.cpu.dcache.WriteReq_accesses::total          883                       # number of WriteReq accesses(hits+misses)
system.cpu.dcache.demand_accesses::cpu.data         1806                       # number of demand (read+write) accesses
system.cpu.dcache.demand_accesses::total         1806                       # number of demand (read+write) accesses
system.cpu.dcache.overall_accesses::cpu.data         1806                       # number of overall (read+write) accesses
system.cpu.dcache.overall_accesses::total         1806                       # number of overall (read+write) accesses
system.cpu.dcache.ReadReq_miss_rate::cpu.data     0.061755                       # miss rate for ReadReq accesses
system.cpu.dcache.ReadReq_miss_rate::total     0.061755                       # miss rate for ReadReq accesses
system.cpu.dcache.WriteReq_miss_rate::cpu.data     0.088335                       # miss rate for WriteReq accesses
system.cpu.dcache.WriteReq_miss_rate::total     0.088335                       # miss rate for WriteReq accesses
system.cpu.dcache.demand_miss_rate::cpu.data     0.074751                       # miss rate for demand accesses
system.cpu.dcache.demand_miss_rate::total     0.074751                       # miss rate for demand accesses
system.cpu.dcache.overall_miss_rate::cpu.data     0.074751                       # miss rate for overall accesses
system.cpu.dcache.overall_miss_rate::total     0.074751                       # miss rate for overall accesses
system.cpu.dcache.ReadReq_avg_miss_latency::cpu.data 255210.526316                       # average ReadReq miss latency
system.cpu.dcache.ReadReq_avg_miss_latency::total 255210.526316                       # average ReadReq miss latency
system.cpu.dcache.WriteReq_avg_miss_latency::cpu.data 165794.871795                       # average WriteReq miss latency
system.cpu.dcache.WriteReq_avg_miss_latency::total 165794.871795                       # average WriteReq miss latency
system.cpu.dcache.demand_avg_miss_latency::cpu.data 203548.148148                       # average overall miss latency
system.cpu.dcache.demand_avg_miss_latency::total 203548.148148                       # average overall miss latency
system.cpu.dcache.overall_avg_miss_latency::cpu.data 203548.148148                       # average overall miss latency
system.cpu.dcache.overall_avg_miss_latency::total 203548.148148                       # average overall miss latency
system.cpu.dcache.blocked_cycles::no_mshrs            0                       # number of cycles access was blocked
system.cpu.dcache.blocked_cycles::no_targets            0                       # number of cycles access was blocked
system.cpu.dcache.blocked::no_mshrs                 0                       # number of cycles access was blocked
system.cpu.dcache.blocked::no_targets               0                       # number of cycles access was blocked
system.cpu.dcache.avg_blocked_cycles::no_mshrs          nan                       # average number of cycles each access was blocked
system.cpu.dcache.avg_blocked_cycles::no_targets          nan                       # average number of cycles each access was blocked
system.cpu.dcache.ReadReq_mshr_misses::cpu.data           57                       # number of ReadReq MSHR misses
system.cpu.dcache.ReadReq_mshr_misses::total           57                       # number of ReadReq MSHR misses
system.cpu.dcache.WriteReq_mshr_misses::cpu.data           78                       # number of WriteReq MSHR misses
system.cpu.dcache.WriteReq_mshr_misses::total           78                       # number of WriteReq MSHR misses
system.cpu.dcache.demand_mshr_misses::cpu.data          135                       # number of demand (read+write) MSHR misses
system.cpu.dcache.demand_mshr_misses::total          135                       # number of demand (read+write) MSHR misses
system.cpu.dcache.overall_mshr_misses::cpu.data          135                       # number of overall MSHR misses
system.cpu.dcache.overall_mshr_misses::total          135                       # number of overall MSHR misses
system.cpu.dcache.ReadReq_mshr_miss_latency::cpu.data     14490000                       # number of ReadReq MSHR miss cycles
system.cpu.dcache.ReadReq_mshr_miss_latency::total     14490000                       # number of ReadReq MSHR miss cycles
system.cpu.dcache.WriteReq_mshr_miss_latency::cpu.data     12854000                       # number of WriteReq MSHR miss cycles
system.cpu.dcache.WriteReq_mshr_miss_latency::total     12854000                       # number of WriteReq MSHR miss cycles
system.cpu.dcache.demand_mshr_miss_latency::cpu.data     27344000                       # number of demand (read+write) MSHR miss cycles
system.cpu.dcache.demand_mshr_miss_latency::total     27344000                       # number of demand (read+write) MSHR miss cycles
system.cpu.dcache.overall_mshr_miss_latency::cpu.data     27344000                       # number of overall MSHR miss cycles
system.cpu.dcache.overall_mshr_miss_latency::total     27344000                       # number of overall MSHR miss cycles
system.cpu.dcache.ReadReq_mshr_miss_rate::cpu.data     0.061755                       # mshr miss rate for ReadReq accesses
system.cpu.dcache.ReadReq_mshr_miss_rate::total     0.061755                       # mshr miss rate for ReadReq accesses
system.cpu.dcache.WriteReq_mshr_miss_rate::cpu.data     0.088335                       # mshr miss rate for WriteReq accesses
system.cpu.dcache.WriteReq_mshr_miss_rate::total     0.088335                       # mshr miss rate for WriteReq accesses
system.cpu.dcache.demand_mshr_miss_rate::cpu.data     0.074751                       # mshr miss rate for demand accesses
system.cpu.dcache.demand_mshr_miss_rate::total     0.074751                       # mshr miss rate for demand accesses
system.cpu.dcache.overall_mshr_miss_rate::cpu.data     0.074751                       # mshr miss rate for overall accesses
system.cpu.dcache.overall_mshr_miss_rate::total     0.074751                       # mshr miss rate for overall accesses
system.cpu.dcache.ReadReq_avg_mshr_miss_latency::cpu.data 254210.526316                       # average ReadReq mshr miss latency
system.cpu.dcache.ReadReq_avg_mshr_miss_latency::total 254210.526316                       # average ReadReq mshr miss latency
system.cpu.dcache.WriteReq_avg_mshr_miss_latency::cpu.data 164794.871795                       # average WriteReq mshr miss latency
system.cpu.dcache.WriteReq_avg_mshr_miss_latency::total 164794.871795                       # average WriteReq mshr miss latency
system.cpu.dcache.demand_avg_mshr_miss_latency::cpu.data 202548.148148                       # average overall mshr miss latency
system.cpu.dcache.demand_avg_mshr_miss_latency::total 202548.148148                       # average overall mshr miss latency
system.cpu.dcache.overall_avg_mshr_miss_latency::cpu.data 202548.148148                       # average overall mshr miss latency
system.cpu.dcache.overall_avg_mshr_miss_latency::total 202548.148148                       # average overall mshr miss latency
system.cpu.dcache.replacements                      0                       # number of replacements
system.cpu.dtb_walker_cache.tags.pwrStateResidencyTicks::UNDEFINED     77198500                       # Cumulative time (in ticks) in various power states
system.cpu.dtb_walker_cache.tags.tagsinuse            0                       # Cycle average of tags in use
system.cpu.dtb_walker_cache.tags.total_refs            0                       # Total number of references to valid blocks.
system.cpu.dtb_walker_cache.tags.sampled_refs            0                       # Sample count of references to valid blocks.
system.cpu.dtb_walker_cache.tags.avg_refs          nan                       # Average number of references to valid blocks.
system.cpu.dtb_walker_cache.tags.warmup_cycle            0                       # Cycle when the warmup percentage was hit.
system.cpu.dtb_walker_cache.tags.tag_accesses            0                       # Number of tag accesses
system.cpu.dtb_walker_cache.tags.data_accesses            0                       # Number of data accesses
system.cpu.dtb_walker_cache.pwrStateResidencyTicks::UNDEFINED     77198500                       # Cumulative time (in ticks) in various power states
system.cpu.dtb_walker_cache.blocked_cycles::no_mshrs            0                       # number of cycles access was blocked
system.cpu.dtb_walker_cache.blocked_cycles::no_targets            0                       # number of cycles access was blocked
system.cpu.dtb_walker_cache.blocked::no_mshrs            0                       # number of cycles access was blocked
system.cpu.dtb_walker_cache.blocked::no_targets            0                       # number of cycles access was blocked
system.cpu.dtb_walker_cache.avg_blocked_cycles::no_mshrs          nan                       # average number of cycles each access was blocked
system.cpu.dtb_walker_cache.avg_blocked_cycles::no_targets          nan                       # average number of cycles each access was blocked
system.cpu.dtb_walker_cache.replacements            0                       # number of replacements
system.cpu.icache.tags.pwrStateResidencyTicks::UNDEFINED     77198500                       # Cumulative time (in ticks) in various power states
system.cpu.icache.tags.tagsinuse            92.989606                       # Cycle average of tags in use
system.cpu.icache.tags.total_refs                7020                       # Total number of references to valid blocks.
system.cpu.icache.tags.sampled_refs               230                       # Sample count of references to valid blocks.
system.cpu.icache.tags.avg_refs             30.521739                       # Average number of references to valid blocks.
system.cpu.icache.tags.warmup_cycle            445500                       # Cycle when the warmup percentage was hit.
system.cpu.icache.tags.occ_blocks::cpu.inst    92.989606                       # Average occupied blocks per requestor
system.cpu.icache.tags.occ_percent::cpu.inst     0.181620                       # Average percentage of cache occupancy
system.cpu.icache.tags.occ_percent::total     0.181620                       # Average percentage of cache occupancy
system.cpu.icache.tags.occ_task_id_blocks::1024          216                       # Occupied blocks per task id
system.cpu.icache.tags.age_task_id_blocks_1024::0           41                       # Occupied blocks per task id
system.cpu.icache.tags.age_task_id_blocks_1024::1          175                       # Occupied blocks per task id
system.cpu.icache.tags.occ_task_id_percent::1024     0.421875                       # Percentage of cache occupancy per task id
system.cpu.icache.tags.tag_accesses             14270                       # Number of tag accesses
system.cpu.icache.tags.data_accesses            14270                       # Number of data accesses
system.cpu.icache.pwrStateResidencyTicks::UNDEFINED     77198500                       # Cumulative time (in ticks) in various power states
system.cpu.icache.ReadReq_hits::cpu.inst         6790                       # number of ReadReq hits
system.cpu.icache.ReadReq_hits::total            6790                       # number of ReadReq hits
system.cpu.icache.demand_hits::cpu.inst          6790                       # number of demand (read+write) hits
system.cpu.icache.demand_hits::total             6790                       # number of demand (read+write) hits
system.cpu.icache.overall_hits::cpu.inst         6790                       # number of overall hits
system.cpu.icache.overall_hits::total            6790                       # number of overall hits
system.cpu.icache.ReadReq_misses::cpu.inst          230                       # number of ReadReq misses
system.cpu.icache.ReadReq_misses::total           230                       # number of ReadReq misses
system.cpu.icache.demand_misses::cpu.inst          230                       # number of demand (read+write) misses
system.cpu.icache.demand_misses::total            230                       # number of demand (read+write) misses
system.cpu.icache.overall_misses::cpu.inst          230                       # number of overall misses
system.cpu.icache.overall_misses::total           230                       # number of overall misses
system.cpu.icache.ReadReq_miss_latency::cpu.inst     41259500                       # number of ReadReq miss cycles
system.cpu.icache.ReadReq_miss_latency::total     41259500                       # number of ReadReq miss cycles
system.cpu.icache.demand_miss_latency::cpu.inst     41259500                       # number of demand (read+write) miss cycles
system.cpu.icache.demand_miss_latency::total     41259500                       # number of demand (read+write) miss cycles
system.cpu.icache.overall_miss_latency::cpu.inst     41259500                       # number of overall miss cycles
system.cpu.icache.overall_miss_latency::total     41259500                       # number of overall miss cycles
system.cpu.icache.ReadReq_accesses::cpu.inst         7020                       # number of ReadReq accesses(hits+misses)
system.cpu.icache.ReadReq_accesses::total         7020                       # number of ReadReq accesses(hits+misses)
system.cpu.icache.demand_accesses::cpu.inst         7020                       # number of demand (read+write) accesses
system.cpu.icache.demand_accesses::total         7020                       # number of demand (read+write) accesses
system.cpu.icache.overall_accesses::cpu.inst         7020                       # number of overall (read+write) accesses
system.cpu.icache.overall_accesses::total         7020                       # number of overall (read+write) accesses
system.cpu.icache.ReadReq_miss_rate::cpu.inst     0.032764                       # miss rate for ReadReq accesses
system.cpu.icache.ReadReq_miss_rate::total     0.032764                       # miss rate for ReadReq accesses
system.cpu.icache.demand_miss_rate::cpu.inst     0.032764                       # miss rate for demand accesses
system.cpu.icache.demand_miss_rate::total     0.032764                       # miss rate for demand accesses
system.cpu.icache.overall_miss_rate::cpu.inst     0.032764                       # miss rate for overall accesses
system.cpu.icache.overall_miss_rate::total     0.032764                       # miss rate for overall accesses
system.cpu.icache.ReadReq_avg_miss_latency::cpu.inst 179389.130435                       # average ReadReq miss latency
system.cpu.icache.ReadReq_avg_miss_latency::total 179389.130435                       # average ReadReq miss latency
system.cpu.icache.demand_avg_miss_latency::cpu.inst 179389.130435                       # average overall miss latency
system.cpu.icache.demand_avg_miss_latency::total 179389.130435                       # average overall miss latency
system.cpu.icache.overall_avg_miss_latency::cpu.inst 179389.130435                       # average overall miss latency
system.cpu.icache.overall_avg_miss_latency::total 179389.130435                       # average overall miss latency
system.cpu.icache.blocked_cycles::no_mshrs            0                       # number of cycles access was blocked
system.cpu.icache.blocked_cycles::no_targets            0                       # number of cycles access was blocked
system.cpu.icache.blocked::no_mshrs                 0                       # number of cycles access was blocked
system.cpu.icache.blocked::no_targets               0                       # number of cycles access was blocked
system.cpu.icache.avg_blocked_cycles::no_mshrs          nan                       # average number of cycles each access was blocked
system.cpu.icache.avg_blocked_cycles::no_targets          nan                       # average number of cycles each access was blocked
system.cpu.icache.writebacks::writebacks           14                       # number of writebacks
system.cpu.icache.writebacks::total                14                       # number of writebacks
system.cpu.icache.ReadReq_mshr_misses::cpu.inst          230                       # number of ReadReq MSHR misses
system.cpu.icache.ReadReq_mshr_misses::total          230                       # number of ReadReq MSHR misses
system.cpu.icache.demand_mshr_misses::cpu.inst          230                       # number of demand (read+write) MSHR misses
system.cpu.icache.demand_mshr_misses::total          230                       # number of demand (read+write) MSHR misses
system.cpu.icache.overall_mshr_misses::cpu.inst          230                       # number of overall MSHR misses
system.cpu.icache.overall_mshr_misses::total          230                       # number of overall MSHR misses
system.cpu.icache.ReadReq_mshr_miss_latency::cpu.inst     41029500                       # number of ReadReq MSHR miss cycles
system.cpu.icache.ReadReq_mshr_miss_latency::total     41029500                       # number of ReadReq MSHR miss cycles
system.cpu.icache.demand_mshr_miss_latency::cpu.inst     41029500                       # number of demand (read+write) MSHR miss cycles
system.cpu.icache.demand_mshr_miss_latency::total     41029500                       # number of demand (read+write) MSHR miss cycles
system.cpu.icache.overall_mshr_miss_latency::cpu.inst     41029500                       # number of overall MSHR miss cycles
system.cpu.icache.overall_mshr_miss_latency::total     41029500                       # number of overall MSHR miss cycles
system.cpu.icache.ReadReq_mshr_miss_rate::cpu.inst     0.032764                       # mshr miss rate for ReadReq accesses
system.cpu.icache.ReadReq_mshr_miss_rate::total     0.032764                       # mshr miss rate for ReadReq accesses
system.cpu.icache.demand_mshr_miss_rate::cpu.inst     0.032764                       # mshr miss rate for demand accesses
system.cpu.icache.demand_mshr_miss_rate::total     0.032764                       # mshr miss rate for demand accesses
system.cpu.icache.overall_mshr_miss_rate::cpu.inst     0.032764                       # mshr miss rate for overall accesses
system.cpu.icache.overall_mshr_miss_rate::total     0.032764                       # mshr miss rate for overall accesses
system.cpu.icache.ReadReq_avg_mshr_miss_latency::cpu.inst 178389.130435                       # average ReadReq mshr miss latency
system.cpu.icache.ReadReq_avg_mshr_miss_latency::total 178389.130435                       # average ReadReq mshr miss latency
system.cpu.icache.demand_avg_mshr_miss_latency::cpu.inst 178389.130435                       # average overall mshr miss latency
system.cpu.icache.demand_avg_mshr_miss_latency::total 178389.130435                       # average overall mshr miss latency
system.cpu.icache.overall_avg_mshr_miss_latency::cpu.inst 178389.130435                       # average overall mshr miss latency
system.cpu.icache.overall_avg_mshr_miss_latency::total 178389.130435                       # average overall mshr miss latency
system.cpu.icache.replacements                     14                       # number of replacements
system.cpu.itb_walker_cache.tags.pwrStateResidencyTicks::UNDEFINED     77198500                       # Cumulative time (in ticks) in various power states
system.cpu.itb_walker_cache.tags.tagsinuse            0                       # Cycle average of tags in use
system.cpu.itb_walker_cache.tags.total_refs            0                       # Total number of references to valid blocks.
system.cpu.itb_walker_cache.tags.sampled_refs            0                       # Sample count of references to valid blocks.
system.cpu.itb_walker_cache.tags.avg_refs          nan                       # Average number of references to valid blocks.
system.cpu.itb_walker_cache.tags.warmup_cycle            0                       # Cycle when the warmup percentage was hit.
system.cpu.itb_walker_cache.tags.tag_accesses            0                       # Number of tag accesses
system.cpu.itb_walker_cache.tags.data_accesses            0                       # Number of data accesses
system.cpu.itb_walker_cache.pwrStateResidencyTicks::UNDEFINED     77198500                       # Cumulative time (in ticks) in various power states
system.cpu.itb_walker_cache.blocked_cycles::no_mshrs            0                       # number of cycles access was blocked
system.cpu.itb_walker_cache.blocked_cycles::no_targets            0                       # number of cycles access was blocked
system.cpu.itb_walker_cache.blocked::no_mshrs            0                       # number of cycles access was blocked
system.cpu.itb_walker_cache.blocked::no_targets            0                       # number of cycles access was blocked
system.cpu.itb_walker_cache.avg_blocked_cycles::no_mshrs          nan                       # average number of cycles each access was blocked
system.cpu.itb_walker_cache.avg_blocked_cycles::no_targets          nan                       # average number of cycles each access was blocked
system.cpu.itb_walker_cache.replacements            0                       # number of replacements
system.l2.tags.pwrStateResidencyTicks::UNDEFINED     77198500                       # Cumulative time (in ticks) in various power states
system.l2.tags.tagsinuse                   174.189630                       # Cycle average of tags in use
system.l2.tags.total_refs                         379                       # Total number of references to valid blocks.
system.l2.tags.sampled_refs                       364                       # Sample count of references to valid blocks.
system.l2.tags.avg_refs                      1.041209                       # Average number of references to valid blocks.
system.l2.tags.warmup_cycle                    435000                       # Cycle when the warmup percentage was hit.
system.l2.tags.occ_blocks::cpu.inst         98.568983                       # Average occupied blocks per requestor
system.l2.tags.occ_blocks::cpu.data         75.620648                       # Average occupied blocks per requestor
system.l2.tags.occ_percent::cpu.inst         0.003008                       # Average percentage of cache occupancy
system.l2.tags.occ_percent::cpu.data         0.002308                       # Average percentage of cache occupancy
system.l2.tags.occ_percent::total            0.005316                       # Average percentage of cache occupancy
system.l2.tags.occ_task_id_blocks::1024           364                       # Occupied blocks per task id
system.l2.tags.age_task_id_blocks_1024::0           52                       # Occupied blocks per task id
system.l2.tags.age_task_id_blocks_1024::1          312                       # Occupied blocks per task id
system.l2.tags.occ_task_id_percent::1024     0.011108                       # Percentage of cache occupancy per task id
system.l2.tags.tag_accesses                      3396                       # Number of tag accesses
system.l2.tags.data_accesses                     3396                       # Number of data accesses
system.l2.pwrStateResidencyTicks::UNDEFINED     77198500                       # Cumulative time (in ticks) in various power states
system.l2.WritebackClean_hits::writebacks           14                       # number of WritebackClean hits
system.l2.WritebackClean_hits::total               14                       # number of WritebackClean hits
system.l2.ReadCleanReq_hits::cpu.inst               1                       # number of ReadCleanReq hits
system.l2.ReadCleanReq_hits::total                  1                       # number of ReadCleanReq hits
system.l2.demand_hits::cpu.inst                     1                       # number of demand (read+write) hits
system.l2.demand_hits::total                        1                       # number of demand (read+write) hits
system.l2.overall_hits::cpu.inst                    1                       # number of overall hits
system.l2.overall_hits::total                       1                       # number of overall hits
system.l2.ReadExReq_misses::cpu.data               78                       # number of ReadExReq misses
system.l2.ReadExReq_misses::total                  78                       # number of ReadExReq misses
system.l2.ReadCleanReq_misses::cpu.inst           229                       # number of ReadCleanReq misses
system.l2.ReadCleanReq_misses::total              229                       # number of ReadCleanReq misses
system.l2.ReadSharedReq_misses::cpu.data           57                       # number of ReadSharedReq misses
system.l2.ReadSharedReq_misses::total              57                       # number of ReadSharedReq misses
system.l2.demand_misses::cpu.inst                 229                       # number of demand (read+write) misses
system.l2.demand_misses::cpu.data                 135                       # number of demand (read+write) misses
system.l2.demand_misses::total                    364                       # number of demand (read+write) misses
system.l2.overall_misses::cpu.inst                229                       # number of overall misses
system.l2.overall_misses::cpu.data                135                       # number of overall misses
system.l2.overall_misses::total                   364                       # number of overall misses
system.l2.ReadExReq_miss_latency::cpu.data     12737000                       # number of ReadExReq miss cycles
system.l2.ReadExReq_miss_latency::total      12737000                       # number of ReadExReq miss cycles
system.l2.ReadCleanReq_miss_latency::cpu.inst     40672500                       # number of ReadCleanReq miss cycles
system.l2.ReadCleanReq_miss_latency::total     40672500                       # number of ReadCleanReq miss cycles
system.l2.ReadSharedReq_miss_latency::cpu.data     14404500                       # number of ReadSharedReq miss cycles
system.l2.ReadSharedReq_miss_latency::total     14404500                       # number of ReadSharedReq miss cycles
system.l2.demand_miss_latency::cpu.inst      40672500                       # number of demand (read+write) miss cycles
system.l2.demand_miss_latency::cpu.data      27141500                       # number of demand (read+write) miss cycles
system.l2.demand_miss_latency::total         67814000                       # number of demand (read+write) miss cycles
system.l2.overall_miss_latency::cpu.inst     40672500                       # number of overall miss cycles
system.l2.overall_miss_latency::cpu.data     27141500                       # number of overall miss cycles
system.l2.overall_miss_latency::total        67814000                       # number of overall miss cycles
system.l2.WritebackClean_accesses::writebacks           14                       # number of WritebackClean accesses(hits+misses)
system.l2.WritebackClean_accesses::total           14                       # number of WritebackClean accesses(hits+misses)
system.l2.ReadExReq_accesses::cpu.data             78                       # number of ReadExReq accesses(hits+misses)
system.l2.ReadExReq_accesses::total                78                       # number of ReadExReq accesses(hits+misses)
system.l2.ReadCleanReq_accesses::cpu.inst          230                       # number of ReadCleanReq accesses(hits+misses)
system.l2.ReadCleanReq_accesses::total            230                       # number of ReadCleanReq accesses(hits+misses)
system.l2.ReadSharedReq_accesses::cpu.data           57                       # number of ReadSharedReq accesses(hits+misses)
system.l2.ReadSharedReq_accesses::total            57                       # number of ReadSharedReq accesses(hits+misses)
system.l2.demand_accesses::cpu.inst               230                       # number of demand (read+write) accesses
system.l2.demand_accesses::cpu.data               135                       # number of demand (read+write) accesses
system.l2.demand_accesses::total                  365                       # number of demand (read+write) accesses
system.l2.overall_accesses::cpu.inst              230                       # number of overall (read+write) accesses
system.l2.overall_accesses::cpu.data              135                       # number of overall (read+write) accesses
system.l2.overall_accesses::total                 365                       # number of overall (read+write) accesses
system.l2.ReadExReq_miss_rate::cpu.data             1                       # miss rate for ReadExReq accesses
system.l2.ReadExReq_miss_rate::total                1                       # miss rate for ReadExReq accesses
system.l2.ReadCleanReq_miss_rate::cpu.inst     0.995652                       # miss rate for ReadCleanReq accesses
system.l2.ReadCleanReq_miss_rate::total      0.995652                       # miss rate for ReadCleanReq accesses
system.l2.ReadSharedReq_miss_rate::cpu.data            1                       # miss rate for ReadSharedReq accesses
system.l2.ReadSharedReq_miss_rate::total            1                       # miss rate for ReadSharedReq accesses
system.l2.demand_miss_rate::cpu.inst         0.995652                       # miss rate for demand accesses
system.l2.demand_miss_rate::cpu.data                1                       # miss rate for demand accesses
system.l2.demand_miss_rate::total            0.997260                       # miss rate for demand accesses
system.l2.overall_miss_rate::cpu.inst        0.995652                       # miss rate for overall accesses
system.l2.overall_miss_rate::cpu.data               1                       # miss rate for overall accesses
system.l2.overall_miss_rate::total           0.997260                       # miss rate for overall accesses
system.l2.ReadExReq_avg_miss_latency::cpu.data 163294.871795                       # average ReadExReq miss latency
system.l2.ReadExReq_avg_miss_latency::total 163294.871795                       # average ReadExReq miss latency
system.l2.ReadCleanReq_avg_miss_latency::cpu.inst 177609.170306                       # average ReadCleanReq miss latency
system.l2.ReadCleanReq_avg_miss_latency::total 177609.170306                       # average ReadCleanReq miss latency
system.l2.ReadSharedReq_avg_miss_latency::cpu.data 252710.526316                       # average ReadSharedReq miss latency
system.l2.ReadSharedReq_avg_miss_latency::total 252710.526316                       # average ReadSharedReq miss latency
system.l2.demand_avg_miss_latency::cpu.inst 177609.170306                       # average overall miss latency
system.l2.demand_avg_miss_latency::cpu.data 201048.148148                       # average overall miss latency
system.l2.demand_avg_miss_latency::total 186302.197802                       # average overall miss latency
system.l2.overall_avg_miss_latency::cpu.inst 177609.170306                       # average overall miss latency
system.l2.overall_avg_miss_latency::cpu.data 201048.148148                       # average overall miss latency
system.l2.overall_avg_miss_latency::total 186302.197802                       # average overall miss latency
system.l2.blocked_cycles::no_mshrs                  0                       # number of cycles access was blocked
system.l2.blocked_cycles::no_targets                0                       # number of cycles access was blocked
system.l2.blocked::no_mshrs                         0                       # number of cycles access was blocked
system.l2.blocked::no_targets                       0                       # number of cycles access was blocked
system.l2.avg_blocked_cycles::no_mshrs            nan                       # average number of cycles each access was blocked
system.l2.avg_blocked_cycles::no_targets          nan                       # average number of cycles each access was blocked
system.l2.ReadExReq_mshr_misses::cpu.data           78                       # number of ReadExReq MSHR misses
system.l2.ReadExReq_mshr_misses::total             78                       # number of ReadExReq MSHR misses
system.l2.ReadCleanReq_mshr_misses::cpu.inst          229                       # number of ReadCleanReq MSHR misses
system.l2.ReadCleanReq_mshr_misses::total          229                       # number of ReadCleanReq MSHR misses
system.l2.ReadSharedReq_mshr_misses::cpu.data           57                       # number of ReadSharedReq MSHR misses
system.l2.ReadSharedReq_mshr_misses::total           57                       # number of ReadSharedReq MSHR misses
system.l2.demand_mshr_misses::cpu.inst            229                       # number of demand (read+write) MSHR misses
system.l2.demand_mshr_misses::cpu.data            135                       # number of demand (read+write) MSHR misses
system.l2.demand_mshr_misses::total               364                       # number of demand (read+write) MSHR misses
system.l2.overall_mshr_misses::cpu.inst           229                       # number of overall MSHR misses
system.l2.overall_mshr_misses::cpu.data           135                       # number of overall MSHR misses
system.l2.overall_mshr_misses::total              364                       # number of overall MSHR misses
system.l2.ReadExReq_mshr_miss_latency::cpu.data     11957000                       # number of ReadExReq MSHR miss cycles
system.l2.ReadExReq_mshr_miss_latency::total     11957000                       # number of ReadExReq MSHR miss cycles
system.l2.ReadCleanReq_mshr_miss_latency::cpu.inst     38382500                       # number of ReadCleanReq MSHR miss cycles
system.l2.ReadCleanReq_mshr_miss_latency::total     38382500                       # number of ReadCleanReq MSHR miss cycles
system.l2.ReadSharedReq_mshr_miss_latency::cpu.data     13834500                       # number of ReadSharedReq MSHR miss cycles
system.l2.ReadSharedReq_mshr_miss_latency::total     13834500                       # number of ReadSharedReq MSHR miss cycles
system.l2.demand_mshr_miss_latency::cpu.inst     38382500                       # number of demand (read+write) MSHR miss cycles
system.l2.demand_mshr_miss_latency::cpu.data     25791500                       # number of demand (read+write) MSHR miss cycles
system.l2.demand_mshr_miss_latency::total     64174000                       # number of demand (read+write) MSHR miss cycles
system.l2.overall_mshr_miss_latency::cpu.inst     38382500                       # number of overall MSHR miss cycles
system.l2.overall_mshr_miss_latency::cpu.data     25791500                       # number of overall MSHR miss cycles
system.l2.overall_mshr_miss_latency::total     64174000                       # number of overall MSHR miss cycles
system.l2.ReadExReq_mshr_miss_rate::cpu.data            1                       # mshr miss rate for ReadExReq accesses
system.l2.ReadExReq_mshr_miss_rate::total            1                       # mshr miss rate for ReadExReq accesses
system.l2.ReadCleanReq_mshr_miss_rate::cpu.inst     0.995652                       # mshr miss rate for ReadCleanReq accesses
system.l2.ReadCleanReq_mshr_miss_rate::total     0.995652                       # mshr miss rate for ReadCleanReq accesses
system.l2.ReadSharedReq_mshr_miss_rate::cpu.data            1                       # mshr miss rate for ReadSharedReq accesses
system.l2.ReadSharedReq_mshr_miss_rate::total            1                       # mshr miss rate for ReadSharedReq accesses
system.l2.demand_mshr_miss_rate::cpu.inst     0.995652                       # mshr miss rate for demand accesses
system.l2.demand_mshr_miss_rate::cpu.data            1                       # mshr miss rate for demand accesses
system.l2.demand_mshr_miss_rate::total       0.997260                       # mshr miss rate for demand accesses
system.l2.overall_mshr_miss_rate::cpu.inst     0.995652                       # mshr miss rate for overall accesses
system.l2.overall_mshr_miss_rate::cpu.data            1                       # mshr miss rate for overall accesses
system.l2.overall_mshr_miss_rate::total      0.997260                       # mshr miss rate for overall accesses
system.l2.ReadExReq_avg_mshr_miss_latency::cpu.data 153294.871795                       # average ReadExReq mshr miss latency
system.l2.ReadExReq_avg_mshr_miss_latency::total 153294.871795                       # average ReadExReq mshr miss latency
system.l2.ReadCleanReq_avg_mshr_miss_latency::cpu.inst 167609.170306                       # average ReadCleanReq mshr miss latency
system.l2.ReadCleanReq_avg_mshr_miss_latency::total 167609.170306                       # average ReadCleanReq mshr miss latency
system.l2.ReadSharedReq_avg_mshr_miss_latency::cpu.data 242710.526316                       # average ReadSharedReq mshr miss latency
system.l2.ReadSharedReq_avg_mshr_miss_latency::total 242710.526316                       # average ReadSharedReq mshr miss latency
system.l2.demand_avg_mshr_miss_latency::cpu.inst 167609.170306                       # average overall mshr miss latency
system.l2.demand_avg_mshr_miss_latency::cpu.data 191048.148148                       # average overall mshr miss latency
system.l2.demand_avg_mshr_miss_latency::total 176302.197802                       # average overall mshr miss latency
system.l2.overall_avg_mshr_miss_latency::cpu.inst 167609.170306                       # average overall mshr miss latency
system.l2.overall_avg_mshr_miss_latency::cpu.data 191048.148148                       # average overall mshr miss latency
system.l2.overall_avg_mshr_miss_latency::total 176302.197802                       # average overall mshr miss latency
system.l2.replacements                              0                       # number of replacements
system.l3.tags.pwrStateResidencyTicks::UNDEFINED     77198500                       # Cumulative time (in ticks) in various power states
system.l3.tags.tagsinuse                   174.269787                       # Cycle average of tags in use
system.l3.tags.total_refs                         364                       # Total number of references to valid blocks.
system.l3.tags.sampled_refs                       364                       # Sample count of references to valid blocks.
system.l3.tags.avg_refs                             1                       # Average number of references to valid blocks.
system.l3.tags.warmup_cycle                    418000                       # Cycle when the warmup percentage was hit.
system.l3.tags.occ_blocks::cpu.inst         98.619411                       # Average occupied blocks per requestor
system.l3.tags.occ_blocks::cpu.data         75.650376                       # Average occupied blocks per requestor
system.l3.tags.occ_percent::cpu.inst         0.000376                       # Average percentage of cache occupancy
system.l3.tags.occ_percent::cpu.data         0.000289                       # Average percentage of cache occupancy
system.l3.tags.occ_percent::total            0.000665                       # Average percentage of cache occupancy
system.l3.tags.occ_task_id_blocks::1024           364                       # Occupied blocks per task id
system.l3.tags.age_task_id_blocks_1024::0           52                       # Occupied blocks per task id
system.l3.tags.age_task_id_blocks_1024::1          312                       # Occupied blocks per task id
system.l3.tags.occ_task_id_percent::1024     0.001389                       # Percentage of cache occupancy per task id
system.l3.tags.tag_accesses                      6188                       # Number of tag accesses
system.l3.tags.data_accesses                     6188                       # Number of data accesses
system.l3.pwrStateResidencyTicks::UNDEFINED     77198500                       # Cumulative time (in ticks) in various power states
system.l3.ReadExReq_misses::cpu.data               78                       # number of ReadExReq misses
system.l3.ReadExReq_misses::total                  78                       # number of ReadExReq misses
system.l3.ReadSharedReq_misses::cpu.inst          229                       # number of ReadSharedReq misses
system.l3.ReadSharedReq_misses::cpu.data           57                       # number of ReadSharedReq misses
system.l3.ReadSharedReq_misses::total             286                       # number of ReadSharedReq misses
system.l3.demand_misses::cpu.inst                 229                       # number of demand (read+write) misses
system.l3.demand_misses::cpu.data                 135                       # number of demand (read+write) misses
system.l3.demand_misses::total                    364                       # number of demand (read+write) misses
system.l3.overall_misses::cpu.inst                229                       # number of overall misses
system.l3.overall_misses::cpu.data                135                       # number of overall misses
system.l3.overall_misses::total                   364                       # number of overall misses
system.l3.ReadExReq_miss_latency::cpu.data     11060000                       # number of ReadExReq miss cycles
system.l3.ReadExReq_miss_latency::total      11060000                       # number of ReadExReq miss cycles
system.l3.ReadSharedReq_miss_latency::cpu.inst     35749000                       # number of ReadSharedReq miss cycles
system.l3.ReadSharedReq_miss_latency::cpu.data     13179000                       # number of ReadSharedReq miss cycles
system.l3.ReadSharedReq_miss_latency::total     48928000                       # number of ReadSharedReq miss cycles
system.l3.demand_miss_latency::cpu.inst      35749000                       # number of demand (read+write) miss cycles
system.l3.demand_miss_latency::cpu.data      24239000                       # number of demand (read+write) miss cycles
system.l3.demand_miss_latency::total         59988000                       # number of demand (read+write) miss cycles
system.l3.overall_miss_latency::cpu.inst     35749000                       # number of overall miss cycles
system.l3.overall_miss_latency::cpu.data     24239000                       # number of overall miss cycles
system.l3.overall_miss_latency::total        59988000                       # number of overall miss cycles
system.l3.ReadExReq_accesses::cpu.data             78                       # number of ReadExReq accesses(hits+misses)
system.l3.ReadExReq_accesses::total                78                       # number of ReadExReq accesses(hits+misses)
system.l3.ReadSharedReq_accesses::cpu.inst          229                       # number of ReadSharedReq accesses(hits+misses)
system.l3.ReadSharedReq_accesses::cpu.data           57                       # number of ReadSharedReq accesses(hits+misses)
system.l3.ReadSharedReq_accesses::total           286                       # number of ReadSharedReq accesses(hits+misses)
system.l3.demand_accesses::cpu.inst               229                       # number of demand (read+write) accesses
system.l3.demand_accesses::cpu.data               135                       # number of demand (read+write) accesses
system.l3.demand_accesses::total                  364                       # number of demand (read+write) accesses
system.l3.overall_accesses::cpu.inst              229                       # number of overall (read+write) accesses
system.l3.overall_accesses::cpu.data              135                       # number of overall (read+write) accesses
system.l3.overall_accesses::total                 364                       # number of overall (read+write) accesses
system.l3.ReadExReq_miss_rate::cpu.data             1                       # miss rate for ReadExReq accesses
system.l3.ReadExReq_miss_rate::total                1                       # miss rate for ReadExReq accesses
system.l3.ReadSharedReq_miss_rate::cpu.inst            1                       # miss rate for ReadSharedReq accesses
system.l3.ReadSharedReq_miss_rate::cpu.data            1                       # miss rate for ReadSharedReq accesses
system.l3.ReadSharedReq_miss_rate::total            1                       # miss rate for ReadSharedReq accesses
system.l3.demand_miss_rate::cpu.inst                1                       # miss rate for demand accesses
system.l3.demand_miss_rate::cpu.data                1                       # miss rate for demand accesses
system.l3.demand_miss_rate::total                   1                       # miss rate for demand accesses
system.l3.overall_miss_rate::cpu.inst               1                       # miss rate for overall accesses
system.l3.overall_miss_rate::cpu.data               1                       # miss rate for overall accesses
system.l3.overall_miss_rate::total                  1                       # miss rate for overall accesses
system.l3.ReadExReq_avg_miss_latency::cpu.data 141794.871795                       # average ReadExReq miss latency
system.l3.ReadExReq_avg_miss_latency::total 141794.871795                       # average ReadExReq miss latency
system.l3.ReadSharedReq_avg_miss_latency::cpu.inst 156109.170306                       # average ReadSharedReq miss latency
system.l3.ReadSharedReq_avg_miss_latency::cpu.data 231210.526316                       # average ReadSharedReq miss latency
system.l3.ReadSharedReq_avg_miss_latency::total 171076.923077                       # average ReadSharedReq miss latency
system.l3.demand_avg_miss_latency::cpu.inst 156109.170306                       # average overall miss latency
system.l3.demand_avg_miss_latency::cpu.data 179548.148148                       # average overall miss latency
system.l3.demand_avg_miss_latency::total 164802.197802                       # average overall miss latency
system.l3.overall_avg_miss_latency::cpu.inst 156109.170306                       # average overall miss latency
system.l3.overall_avg_miss_latency::cpu.data 179548.148148                       # average overall miss latency
system.l3.overall_avg_miss_latency::total 164802.197802                       # average overall miss latency
system.l3.blocked_cycles::no_mshrs                  0                       # number of cycles access was blocked
system.l3.blocked_cycles::no_targets                0                       # number of cycles access was blocked
system.l3.blocked::no_mshrs                         0                       # number of cycles access was blocked
system.l3.blocked::no_targets                       0                       # number of cycles access was blocked
system.l3.avg_blocked_cycles::no_mshrs            nan                       # average number of cycles each access was blocked
system.l3.avg_blocked_cycles::no_targets          nan                       # average number of cycles each access was blocked
system.l3.ReadExReq_mshr_misses::cpu.data           78                       # number of ReadExReq MSHR misses
system.l3.ReadExReq_mshr_misses::total             78                       # number of ReadExReq MSHR misses
system.l3.ReadSharedReq_mshr_misses::cpu.inst          229                       # number of ReadSharedReq MSHR misses
system.l3.ReadSharedReq_mshr_misses::cpu.data           57                       # number of ReadSharedReq MSHR misses
system.l3.ReadSharedReq_mshr_misses::total          286                       # number of ReadSharedReq MSHR misses
system.l3.demand_mshr_misses::cpu.inst            229                       # number of demand (read+write) MSHR misses
system.l3.demand_mshr_misses::cpu.data            135                       # number of demand (read+write) MSHR misses
system.l3.demand_mshr_misses::total               364                       # number of demand (read+write) MSHR misses
system.l3.overall_mshr_misses::cpu.inst           229                       # number of overall MSHR misses
system.l3.overall_mshr_misses::cpu.data           135                       # number of overall MSHR misses
system.l3.overall_mshr_misses::total              364                       # number of overall MSHR misses
system.l3.ReadExReq_mshr_miss_latency::cpu.data      9812000                       # number of ReadExReq MSHR miss cycles
system.l3.ReadExReq_mshr_miss_latency::total      9812000                       # number of ReadExReq MSHR miss cycles
system.l3.ReadSharedReq_mshr_miss_latency::cpu.inst     32085000                       # number of ReadSharedReq MSHR miss cycles
system.l3.ReadSharedReq_mshr_miss_latency::cpu.data     12267000                       # number of ReadSharedReq MSHR miss cycles
system.l3.ReadSharedReq_mshr_miss_latency::total     44352000                       # number of ReadSharedReq MSHR miss cycles
system.l3.demand_mshr_miss_latency::cpu.inst     32085000                       # number of demand (read+write) MSHR miss cycles
system.l3.demand_mshr_miss_latency::cpu.data     22079000                       # number of demand (read+write) MSHR miss cycles
system.l3.demand_mshr_miss_latency::total     54164000                       # number of demand (read+write) MSHR miss cycles
system.l3.overall_mshr_miss_latency::cpu.inst     32085000                       # number of overall MSHR miss cycles
system.l3.overall_mshr_miss_latency::cpu.data     22079000                       # number of overall MSHR miss cycles
system.l3.overall_mshr_miss_latency::total     54164000                       # number of overall MSHR miss cycles
system.l3.ReadExReq_mshr_miss_rate::cpu.data            1                       # mshr miss rate for ReadExReq accesses
system.l3.ReadExReq_mshr_miss_rate::total            1                       # mshr miss rate for ReadExReq accesses
system.l3.ReadSharedReq_mshr_miss_rate::cpu.inst            1                       # mshr miss rate for ReadSharedReq accesses
system.l3.ReadSharedReq_mshr_miss_rate::cpu.data            1                       # mshr miss rate for ReadSharedReq accesses
system.l3.ReadSharedReq_mshr_miss_rate::total            1                       # mshr miss rate for ReadSharedReq accesses
system.l3.demand_mshr_miss_rate::cpu.inst            1                       # mshr miss rate for demand accesses
system.l3.demand_mshr_miss_rate::cpu.data            1                       # mshr miss rate for demand accesses
system.l3.demand_mshr_miss_rate::total              1                       # mshr miss rate for demand accesses
system.l3.overall_mshr_miss_rate::cpu.inst            1                       # mshr miss rate for overall accesses
system.l3.overall_mshr_miss_rate::cpu.data            1                       # mshr miss rate for overall accesses
system.l3.overall_mshr_miss_rate::total             1                       # mshr miss rate for overall accesses
system.l3.ReadExReq_avg_mshr_miss_latency::cpu.data 125794.871795                       # average ReadExReq mshr miss latency
system.l3.ReadExReq_avg_mshr_miss_latency::total 125794.871795                       # average ReadExReq mshr miss latency
system.l3.ReadSharedReq_avg_mshr_miss_latency::cpu.inst 140109.170306                       # average ReadSharedReq mshr miss latency
system.l3.ReadSharedReq_avg_mshr_miss_latency::cpu.data 215210.526316                       # average ReadSharedReq mshr miss latency
system.l3.ReadSharedReq_avg_mshr_miss_latency::total 155076.923077                       # average ReadSharedReq mshr miss latency
system.l3.demand_avg_mshr_miss_latency::cpu.inst 140109.170306                       # average overall mshr miss latency
system.l3.demand_avg_mshr_miss_latency::cpu.data 163548.148148                       # average overall mshr miss latency
system.l3.demand_avg_mshr_miss_latency::total 148802.197802                       # average overall mshr miss latency
system.l3.overall_avg_mshr_miss_latency::cpu.inst 140109.170306                       # average overall mshr miss latency
system.l3.overall_avg_mshr_miss_latency::cpu.data 163548.148148                       # average overall mshr miss latency
system.l3.overall_avg_mshr_miss_latency::total 148802.197802                       # average overall mshr miss latency
system.l3.replacements                              0                       # number of replacements
system.membus.snoop_filter.tot_requests           364                       # Total number of requests made to the snoop filter.
system.membus.snoop_filter.hit_single_requests            0                       # Number of requests hitting in the snoop filter with a single holder of the requested data.
system.membus.snoop_filter.hit_multi_requests            0                       # Number of requests hitting in the snoop filter with multiple (>1) holders of the requested data.
system.membus.snoop_filter.tot_snoops               0                       # Total number of snoops made to the snoop filter.
system.membus.snoop_filter.hit_single_snoops            0                       # Number of snoops hitting in the snoop filter with a single holder of the requested data.
system.membus.snoop_filter.hit_multi_snoops            0                       # Number of snoops hitting in the snoop filter with multiple (>1) holders of the requested data.
system.membus.pwrStateResidencyTicks::UNDEFINED     77198500                       # Cumulative time (in ticks) in various power states
system.membus.trans_dist::ReadResp                286                       # Transaction distribution
system.membus.trans_dist::ReadExReq                78                       # Transaction distribution
system.membus.trans_dist::ReadExResp               78                       # Transaction distribution
system.membus.trans_dist::ReadSharedReq           286                       # Transaction distribution
system.membus.pkt_count_system.l3.mem_side::system.mem_ctrls.port          728                       # Packet count per connected master and slave (bytes)
system.membus.pkt_count_system.l3.mem_side::total          728                       # Packet count per connected master and slave (bytes)
system.membus.pkt_count::total                    728                       # Packet count per connected master and slave (bytes)
system.membus.pkt_size_system.l3.mem_side::system.mem_ctrls.port        23296                       # Cumulative packet size per connected master and slave (bytes)
system.membus.pkt_size_system.l3.mem_side::total        23296                       # Cumulative packet size per connected master and slave (bytes)
system.membus.pkt_size::total                   23296                       # Cumulative packet size per connected master and slave (bytes)
system.membus.snoops                                0                       # Total snoops (count)
system.membus.snoopTraffic                          0                       # Total snoop traffic (bytes)
system.membus.snoop_fanout::samples               364                       # Request fanout histogram
system.membus.snoop_fanout::mean                    0                       # Request fanout histogram
system.membus.snoop_fanout::stdev                   0                       # Request fanout histogram
system.membus.snoop_fanout::underflows              0      0.00%      0.00% # Request fanout histogram
system.membus.snoop_fanout::0                     364    100.00%    100.00% # Request fanout histogram
system.membus.snoop_fanout::1                       0      0.00%    100.00% # Request fanout histogram
system.membus.snoop_fanout::overflows               0      0.00%    100.00% # Request fanout histogram
system.membus.snoop_fanout::min_value               0                       # Request fanout histogram
system.membus.snoop_fanout::max_value               0                       # Request fanout histogram
system.membus.snoop_fanout::total                 364                       # Request fanout histogram
system.membus.reqLayer2.occupancy              545000                       # Layer occupancy (ticks)
system.membus.reqLayer2.utilization               0.7                       # Layer utilization (%)
system.membus.respLayer1.occupancy            2001000                       # Layer occupancy (ticks)
system.membus.respLayer1.utilization              2.6                       # Layer utilization (%)
system.tol2bus.snoop_filter.tot_requests          379                       # Total number of requests made to the snoop filter.
system.tol2bus.snoop_filter.hit_single_requests           15                       # Number of requests hitting in the snoop filter with a single holder of the requested data.
system.tol2bus.snoop_filter.hit_multi_requests            0                       # Number of requests hitting in the snoop filter with multiple (>1) holders of the requested data.
system.tol2bus.snoop_filter.tot_snoops              0                       # Total number of snoops made to the snoop filter.
system.tol2bus.snoop_filter.hit_single_snoops            0                       # Number of snoops hitting in the snoop filter with a single holder of the requested data.
system.tol2bus.snoop_filter.hit_multi_snoops            0                       # Number of snoops hitting in the snoop filter with multiple (>1) holders of the requested data.
system.tol2bus.pwrStateResidencyTicks::UNDEFINED     77198500                       # Cumulative time (in ticks) in various power states
system.tol2bus.trans_dist::ReadResp               287                       # Transaction distribution
system.tol2bus.trans_dist::WritebackClean           14                       # Transaction distribution
system.tol2bus.trans_dist::ReadExReq               78                       # Transaction distribution
system.tol2bus.trans_dist::ReadExResp              78                       # Transaction distribution
system.tol2bus.trans_dist::ReadCleanReq           230                       # Transaction distribution
system.tol2bus.trans_dist::ReadSharedReq           57                       # Transaction distribution
system.tol2bus.pkt_count_system.cpu.icache.mem_side::system.l2.cpu_side          474                       # Packet count per connected master and slave (bytes)
system.tol2bus.pkt_count_system.cpu.dcache.mem_side::system.l2.cpu_side          270                       # Packet count per connected master and slave (bytes)
system.tol2bus.pkt_count::total                   744                       # Packet count per connected master and slave (bytes)
system.tol2bus.pkt_size_system.cpu.icache.mem_side::system.l2.cpu_side        15616                       # Cumulative packet size per connected master and slave (bytes)
system.tol2bus.pkt_size_system.cpu.dcache.mem_side::system.l2.cpu_side         8640                       # Cumulative packet size per connected master and slave (bytes)
system.tol2bus.pkt_size::total                  24256                       # Cumulative packet size per connected master and slave (bytes)
system.tol2bus.snoops                               0                       # Total snoops (count)
system.tol2bus.snoopTraffic                         0                       # Total snoop traffic (bytes)
system.tol2bus.snoop_fanout::samples              365                       # Request fanout histogram
system.tol2bus.snoop_fanout::mean            0.002740                       # Request fanout histogram
system.tol2bus.snoop_fanout::stdev           0.052342                       # Request fanout histogram
system.tol2bus.snoop_fanout::underflows             0      0.00%      0.00% # Request fanout histogram
system.tol2bus.snoop_fanout::0                    364     99.73%     99.73% # Request fanout histogram
system.tol2bus.snoop_fanout::1                      1      0.27%    100.00% # Request fanout histogram
system.tol2bus.snoop_fanout::2                      0      0.00%    100.00% # Request fanout histogram
system.tol2bus.snoop_fanout::3                      0      0.00%    100.00% # Request fanout histogram
system.tol2bus.snoop_fanout::4                      0      0.00%    100.00% # Request fanout histogram
system.tol2bus.snoop_fanout::overflows              0      0.00%    100.00% # Request fanout histogram
system.tol2bus.snoop_fanout::min_value              0                       # Request fanout histogram
system.tol2bus.snoop_fanout::max_value              1                       # Request fanout histogram
system.tol2bus.snoop_fanout::total                365                       # Request fanout histogram
system.tol2bus.reqLayer0.occupancy             203500                       # Layer occupancy (ticks)
system.tol2bus.reqLayer0.utilization              0.3                       # Layer utilization (%)
system.tol2bus.respLayer0.occupancy            345000                       # Layer occupancy (ticks)
system.tol2bus.respLayer0.utilization             0.4                       # Layer utilization (%)
system.tol2bus.respLayer1.occupancy            202500                       # Layer occupancy (ticks)
system.tol2bus.respLayer1.utilization             0.3                       # Layer utilization (%)
system.tol3bus.snoop_filter.tot_requests          364                       # Total number of requests made to the snoop filter.
system.tol3bus.snoop_filter.hit_single_requests            0                       # Number of requests hitting in the snoop filter with a single holder of the requested data.
system.tol3bus.snoop_filter.hit_multi_requests            0                       # Number of requests hitting in the snoop filter with multiple (>1) holders of the requested data.
system.tol3bus.snoop_filter.tot_snoops              0                       # Total number of snoops made to the snoop filter.
system.tol3bus.snoop_filter.hit_single_snoops            0                       # Number of snoops hitting in the snoop filter with a single holder of the requested data.
system.tol3bus.snoop_filter.hit_multi_snoops            0                       # Number of snoops hitting in the snoop filter with multiple (>1) holders of the requested data.
system.tol3bus.pwrStateResidencyTicks::UNDEFINED     77198500                       # Cumulative time (in ticks) in various power states
system.tol3bus.trans_dist::ReadResp               286                       # Transaction distribution
system.tol3bus.trans_dist::ReadExReq               78                       # Transaction distribution
system.tol3bus.trans_dist::ReadExResp              78                       # Transaction distribution
system.tol3bus.trans_dist::ReadSharedReq          286                       # Transaction distribution
system.tol3bus.pkt_count_system.l2.mem_side::system.l3.cpu_side          728                       # Packet count per connected master and slave (bytes)
system.tol3bus.pkt_size_system.l2.mem_side::system.l3.cpu_side        23296                       # Cumulative packet size per connected master and slave (bytes)
system.tol3bus.snoops                               0                       # Total snoops (count)
system.tol3bus.snoopTraffic                         0                       # Total snoop traffic (bytes)
system.tol3bus.snoop_fanout::samples              364                       # Request fanout histogram
system.tol3bus.snoop_fanout::mean                   0                       # Request fanout histogram
system.tol3bus.snoop_fanout::stdev                  0                       # Request fanout histogram
system.tol3bus.snoop_fanout::underflows             0      0.00%      0.00% # Request fanout histogram
system.tol3bus.snoop_fanout::0                    364    100.00%    100.00% # Request fanout histogram
system.tol3bus.snoop_fanout::1                      0      0.00%    100.00% # Request fanout histogram
system.tol3bus.snoop_fanout::overflows              0      0.00%    100.00% # Request fanout histogram
system.tol3bus.snoop_fanout::min_value              0                       # Request fanout histogram
system.tol3bus.snoop_fanout::max_value              0                       # Request fanout histogram
system.tol3bus.snoop_fanout::total                364                       # Request fanout histogram
system.tol3bus.reqLayer0.occupancy             182000                       # Layer occupancy (ticks)
system.tol3bus.reqLayer0.utilization              0.2                       # Layer utilization (%)
system.tol3bus.respLayer0.occupancy            546000                       # Layer occupancy (ticks)
system.tol3bus.respLayer0.utilization             0.7                       # Layer utilization (%)

---------- End Simulation Statistics   ----------
