
---------- Begin Simulation Statistics ----------
sim_seconds                                  0.094007                       # Number of seconds simulated
sim_ticks                                 94006674500                       # Number of ticks simulated
final_tick                                94006674500                       # Number of ticks from beginning of simulation (restored from checkpoints and never reset)
sim_freq                                 1000000000000                       # Frequency of simulated ticks
host_inst_rate                                1201667                       # Simulator instruction rate (inst/s)
host_op_rate                                  1978568                       # Simulator op (including micro ops) rate (op/s)
host_tick_rate                             2533414509                       # Simulator tick rate (ticks/s)
host_mem_usage                                 659616                       # Number of bytes of host memory used
host_seconds                                    37.11                       # Real time elapsed on the host
sim_insts                                    44589703                       # Number of instructions simulated
sim_ops                                      73417842                       # Number of ops (including micro ops) simulated
system.voltage_domain.voltage                       1                       # Voltage in Volts
system.clk_domain.clock                          1000                       # Clock period in ticks
system.mem_ctrls.pwrStateResidencyTicks::UNDEFINED  94006674500                       # Cumulative time (in ticks) in various power states
system.mem_ctrls.bytes_read::cpu.inst           22720                       # Number of bytes read from this memory
system.mem_ctrls.bytes_read::cpu.data         1273920                       # Number of bytes read from this memory
system.mem_ctrls.bytes_read::total            1296640                       # Number of bytes read from this memory
system.mem_ctrls.bytes_inst_read::cpu.inst        22720                       # Number of instructions bytes read from this memory
system.mem_ctrls.bytes_inst_read::total         22720                       # Number of instructions bytes read from this memory
system.mem_ctrls.bytes_written::writebacks      1058176                       # Number of bytes written to this memory
system.mem_ctrls.bytes_written::total         1058176                       # Number of bytes written to this memory
system.mem_ctrls.num_reads::cpu.inst              355                       # Number of read requests responded to by this memory
system.mem_ctrls.num_reads::cpu.data            19905                       # Number of read requests responded to by this memory
system.mem_ctrls.num_reads::total               20260                       # Number of read requests responded to by this memory
system.mem_ctrls.num_writes::writebacks         16534                       # Number of write requests responded to by this memory
system.mem_ctrls.num_writes::total              16534                       # Number of write requests responded to by this memory
system.mem_ctrls.bw_read::cpu.inst             241685                       # Total read bandwidth from this memory (bytes/s)
system.mem_ctrls.bw_read::cpu.data           13551378                       # Total read bandwidth from this memory (bytes/s)
system.mem_ctrls.bw_read::total              13793063                       # Total read bandwidth from this memory (bytes/s)
system.mem_ctrls.bw_inst_read::cpu.inst        241685                       # Instruction read bandwidth from this memory (bytes/s)
system.mem_ctrls.bw_inst_read::total           241685                       # Instruction read bandwidth from this memory (bytes/s)
system.mem_ctrls.bw_write::writebacks        11256392                       # Write bandwidth from this memory (bytes/s)
system.mem_ctrls.bw_write::total             11256392                       # Write bandwidth from this memory (bytes/s)
system.mem_ctrls.bw_total::writebacks        11256392                       # Total bandwidth to/from this memory (bytes/s)
system.mem_ctrls.bw_total::cpu.inst            241685                       # Total bandwidth to/from this memory (bytes/s)
system.mem_ctrls.bw_total::cpu.data          13551378                       # Total bandwidth to/from this memory (bytes/s)
system.mem_ctrls.bw_total::total             25049455                       # Total bandwidth to/from this memory (bytes/s)
system.pwrStateResidencyTicks::UNDEFINED  94006674500                       # Cumulative time (in ticks) in various power states
system.cpu_voltage_domain.voltage                   1                       # Voltage in Volts
system.cpu_clk_domain.clock                       500                       # Clock period in ticks
system.cpu.dtb.walker.pwrStateResidencyTicks::UNDEFINED  94006674500                       # Cumulative time (in ticks) in various power states
system.cpu.dtb.rdAccesses                    20877741                       # TLB accesses on read requests
system.cpu.dtb.wrAccesses                     5816533                       # TLB accesses on write requests
system.cpu.dtb.rdMisses                           166                       # TLB misses on read requests
system.cpu.dtb.wrMisses                           106                       # TLB misses on write requests
system.cpu.apic_clk_domain.clock                 8000                       # Clock period in ticks
system.cpu.interrupts.pwrStateResidencyTicks::UNDEFINED  94006674500                       # Cumulative time (in ticks) in various power states
system.cpu.itb.walker.pwrStateResidencyTicks::UNDEFINED  94006674500                       # Cumulative time (in ticks) in various power states
system.cpu.itb.rdAccesses                           0                       # TLB accesses on read requests
system.cpu.itb.wrAccesses                    59916890                       # TLB accesses on write requests
system.cpu.itb.rdMisses                             0                       # TLB misses on read requests
system.cpu.itb.wrMisses                            36                       # TLB misses on write requests
system.cpu.workload.numSyscalls                     9                       # Number of system calls
system.cpu.pwrStateResidencyTicks::ON     94006674500                       # Cumulative time (in ticks) in various power states
system.cpu.numCycles                        188013349                       # number of cpu cycles simulated
system.cpu.numWorkItemsStarted                      0                       # number of work items this cpu started
system.cpu.numWorkItemsCompleted                    0                       # number of work items this cpu completed
system.cpu.committedInsts                    44589703                       # Number of instructions committed
system.cpu.committedOps                      73417842                       # Number of ops (including micro ops) committed
system.cpu.num_int_alu_accesses              72895918                       # Number of integer alu accesses
system.cpu.num_fp_alu_accesses                   1951                       # Number of float alu accesses
system.cpu.num_vec_alu_accesses                     0                       # Number of vector alu accesses
system.cpu.num_func_calls                      944900                       # number of times a function call or return occured
system.cpu.num_conditional_control_insts      4232452                       # number of instructions that are conditional controls
system.cpu.num_int_insts                     72895918                       # number of integer instructions
system.cpu.num_fp_insts                          1951                       # number of float instructions
system.cpu.num_vec_insts                            0                       # number of vector instructions
system.cpu.num_int_register_reads           163691559                       # number of times the integer registers were read
system.cpu.num_int_register_writes           63686401                       # number of times the integer registers were written
system.cpu.num_fp_register_reads                 3771                       # number of times the floating registers were read
system.cpu.num_fp_register_writes                1484                       # number of times the floating registers were written
system.cpu.num_vec_register_reads                   0                       # number of times the vector registers were read
system.cpu.num_vec_register_writes                  0                       # number of times the vector registers were written
system.cpu.num_cc_register_reads             27636615                       # number of times the CC registers were read
system.cpu.num_cc_register_writes            24933069                       # number of times the CC registers were written
system.cpu.num_mem_refs                      26694269                       # number of memory refs
system.cpu.num_load_insts                    20877737                       # Number of load instructions
system.cpu.num_store_insts                    5816532                       # Number of store instructions
system.cpu.num_idle_cycles                          0                       # Number of idle cycles
system.cpu.num_busy_cycles                  188013349                       # Number of busy cycles
system.cpu.not_idle_fraction                        1                       # Percentage of non-idle cycles
system.cpu.idle_fraction                            0                       # Percentage of idle cycles
system.cpu.Branches                           5574736                       # Number of branches fetched
system.cpu.op_class::No_OpClass                175846      0.24%      0.24% # Class of executed instruction
system.cpu.op_class::IntAlu                  45543769     62.03%     62.27% # Class of executed instruction
system.cpu.op_class::IntMult                        4      0.00%     62.27% # Class of executed instruction
system.cpu.op_class::IntDiv                   1002994      1.37%     63.64% # Class of executed instruction
system.cpu.op_class::FloatAdd                      10      0.00%     63.64% # Class of executed instruction
system.cpu.op_class::FloatCmp                       0      0.00%     63.64% # Class of executed instruction
system.cpu.op_class::FloatCvt                       0      0.00%     63.64% # Class of executed instruction
system.cpu.op_class::FloatMult                      0      0.00%     63.64% # Class of executed instruction
system.cpu.op_class::FloatMultAcc                   0      0.00%     63.64% # Class of executed instruction
system.cpu.op_class::FloatDiv                       0      0.00%     63.64% # Class of executed instruction
system.cpu.op_class::FloatMisc                      0      0.00%     63.64% # Class of executed instruction
system.cpu.op_class::FloatSqrt                      0      0.00%     63.64% # Class of executed instruction
system.cpu.op_class::SimdAdd                      374      0.00%     63.64% # Class of executed instruction
system.cpu.op_class::SimdAddAcc                     0      0.00%     63.64% # Class of executed instruction
system.cpu.op_class::SimdAlu                       68      0.00%     63.64% # Class of executed instruction
system.cpu.op_class::SimdCmp                        0      0.00%     63.64% # Class of executed instruction
system.cpu.op_class::SimdCvt                      108      0.00%     63.64% # Class of executed instruction
system.cpu.op_class::SimdMisc                     214      0.00%     63.64% # Class of executed instruction
system.cpu.op_class::SimdMult                       0      0.00%     63.64% # Class of executed instruction
system.cpu.op_class::SimdMultAcc                    0      0.00%     63.64% # Class of executed instruction
system.cpu.op_class::SimdShift                    186      0.00%     63.64% # Class of executed instruction
system.cpu.op_class::SimdShiftAcc                   0      0.00%     63.64% # Class of executed instruction
system.cpu.op_class::SimdSqrt                       0      0.00%     63.64% # Class of executed instruction
system.cpu.op_class::SimdFloatAdd                   0      0.00%     63.64% # Class of executed instruction
system.cpu.op_class::SimdFloatAlu                   0      0.00%     63.64% # Class of executed instruction
system.cpu.op_class::SimdFloatCmp                   0      0.00%     63.64% # Class of executed instruction
system.cpu.op_class::SimdFloatCvt                   0      0.00%     63.64% # Class of executed instruction
system.cpu.op_class::SimdFloatDiv                   0      0.00%     63.64% # Class of executed instruction
system.cpu.op_class::SimdFloatMisc                  0      0.00%     63.64% # Class of executed instruction
system.cpu.op_class::SimdFloatMult                  0      0.00%     63.64% # Class of executed instruction
system.cpu.op_class::SimdFloatMultAcc               0      0.00%     63.64% # Class of executed instruction
system.cpu.op_class::SimdFloatSqrt                  0      0.00%     63.64% # Class of executed instruction
system.cpu.op_class::MemRead                 20877677     28.44%     92.08% # Class of executed instruction
system.cpu.op_class::MemWrite                 5816113      7.92%    100.00% # Class of executed instruction
system.cpu.op_class::FloatMemRead                  60      0.00%    100.00% # Class of executed instruction
system.cpu.op_class::FloatMemWrite                419      0.00%    100.00% # Class of executed instruction
system.cpu.op_class::IprAccess                      0      0.00%    100.00% # Class of executed instruction
system.cpu.op_class::InstPrefetch                   0      0.00%    100.00% # Class of executed instruction
system.cpu.op_class::total                   73417842                       # Class of executed instruction
system.cpu.dcache.tags.pwrStateResidencyTicks::UNDEFINED  94006674500                       # Cumulative time (in ticks) in various power states
system.cpu.dcache.tags.tagsinuse           510.070132                       # Cycle average of tags in use
system.cpu.dcache.tags.total_refs            26694274                       # Total number of references to valid blocks.
system.cpu.dcache.tags.sampled_refs             45404                       # Sample count of references to valid blocks.
system.cpu.dcache.tags.avg_refs            587.927804                       # Average number of references to valid blocks.
system.cpu.dcache.tags.warmup_cycle            766500                       # Cycle when the warmup percentage was hit.
system.cpu.dcache.tags.occ_blocks::cpu.data   510.070132                       # Average occupied blocks per requestor
system.cpu.dcache.tags.occ_percent::cpu.data     0.996231                       # Average percentage of cache occupancy
system.cpu.dcache.tags.occ_percent::total     0.996231                       # Average percentage of cache occupancy
system.cpu.dcache.tags.occ_task_id_blocks::1024          512                       # Occupied blocks per task id
system.cpu.dcache.tags.age_task_id_blocks_1024::0           11                       # Occupied blocks per task id
system.cpu.dcache.tags.age_task_id_blocks_1024::1           16                       # Occupied blocks per task id
system.cpu.dcache.tags.age_task_id_blocks_1024::2           34                       # Occupied blocks per task id
system.cpu.dcache.tags.age_task_id_blocks_1024::3          450                       # Occupied blocks per task id
system.cpu.dcache.tags.age_task_id_blocks_1024::4            1                       # Occupied blocks per task id
system.cpu.dcache.tags.occ_task_id_percent::1024            1                       # Percentage of cache occupancy per task id
system.cpu.dcache.tags.tag_accesses          53433952                       # Number of tag accesses
system.cpu.dcache.tags.data_accesses         53433952                       # Number of data accesses
system.cpu.dcache.pwrStateResidencyTicks::UNDEFINED  94006674500                       # Cumulative time (in ticks) in various power states
system.cpu.dcache.ReadReq_hits::cpu.data     20839027                       # number of ReadReq hits
system.cpu.dcache.ReadReq_hits::total        20839027                       # number of ReadReq hits
system.cpu.dcache.WriteReq_hits::cpu.data      5806558                       # number of WriteReq hits
system.cpu.dcache.WriteReq_hits::total        5806558                       # number of WriteReq hits
system.cpu.dcache.demand_hits::cpu.data      26645585                       # number of demand (read+write) hits
system.cpu.dcache.demand_hits::total         26645585                       # number of demand (read+write) hits
system.cpu.dcache.overall_hits::cpu.data     26645585                       # number of overall hits
system.cpu.dcache.overall_hits::total        26645585                       # number of overall hits
system.cpu.dcache.ReadReq_misses::cpu.data        38714                       # number of ReadReq misses
system.cpu.dcache.ReadReq_misses::total         38714                       # number of ReadReq misses
system.cpu.dcache.WriteReq_misses::cpu.data         9975                       # number of WriteReq misses
system.cpu.dcache.WriteReq_misses::total         9975                       # number of WriteReq misses
system.cpu.dcache.demand_misses::cpu.data        48689                       # number of demand (read+write) misses
system.cpu.dcache.demand_misses::total          48689                       # number of demand (read+write) misses
system.cpu.dcache.overall_misses::cpu.data        48689                       # number of overall misses
system.cpu.dcache.overall_misses::total         48689                       # number of overall misses
system.cpu.dcache.ReadReq_miss_latency::cpu.data   5913632500                       # number of ReadReq miss cycles
system.cpu.dcache.ReadReq_miss_latency::total   5913632500                       # number of ReadReq miss cycles
system.cpu.dcache.WriteReq_miss_latency::cpu.data   1461494500                       # number of WriteReq miss cycles
system.cpu.dcache.WriteReq_miss_latency::total   1461494500                       # number of WriteReq miss cycles
system.cpu.dcache.demand_miss_latency::cpu.data   7375127000                       # number of demand (read+write) miss cycles
system.cpu.dcache.demand_miss_latency::total   7375127000                       # number of demand (read+write) miss cycles
system.cpu.dcache.overall_miss_latency::cpu.data   7375127000                       # number of overall miss cycles
system.cpu.dcache.overall_miss_latency::total   7375127000                       # number of overall miss cycles
system.cpu.dcache.ReadReq_accesses::cpu.data     20877741                       # number of ReadReq accesses(hits+misses)
system.cpu.dcache.ReadReq_accesses::total     20877741                       # number of ReadReq accesses(hits+misses)
system.cpu.dcache.WriteReq_accesses::cpu.data      5816533                       # number of WriteReq accesses(hits+misses)
system.cpu.dcache.WriteReq_accesses::total      5816533                       # number of WriteReq accesses(hits+misses)
system.cpu.dcache.demand_accesses::cpu.data     26694274                       # number of demand (read+write) accesses
system.cpu.dcache.demand_accesses::total     26694274                       # number of demand (read+write) accesses
system.cpu.dcache.overall_accesses::cpu.data     26694274                       # number of overall (read+write) accesses
system.cpu.dcache.overall_accesses::total     26694274                       # number of overall (read+write) accesses
system.cpu.dcache.ReadReq_miss_rate::cpu.data     0.001854                       # miss rate for ReadReq accesses
system.cpu.dcache.ReadReq_miss_rate::total     0.001854                       # miss rate for ReadReq accesses
system.cpu.dcache.WriteReq_miss_rate::cpu.data     0.001715                       # miss rate for WriteReq accesses
system.cpu.dcache.WriteReq_miss_rate::total     0.001715                       # miss rate for WriteReq accesses
system.cpu.dcache.demand_miss_rate::cpu.data     0.001824                       # miss rate for demand accesses
system.cpu.dcache.demand_miss_rate::total     0.001824                       # miss rate for demand accesses
system.cpu.dcache.overall_miss_rate::cpu.data     0.001824                       # miss rate for overall accesses
system.cpu.dcache.overall_miss_rate::total     0.001824                       # miss rate for overall accesses
system.cpu.dcache.ReadReq_avg_miss_latency::cpu.data 152751.782301                       # average ReadReq miss latency
system.cpu.dcache.ReadReq_avg_miss_latency::total 152751.782301                       # average ReadReq miss latency
system.cpu.dcache.WriteReq_avg_miss_latency::cpu.data 146515.739348                       # average WriteReq miss latency
system.cpu.dcache.WriteReq_avg_miss_latency::total 146515.739348                       # average WriteReq miss latency
system.cpu.dcache.demand_avg_miss_latency::cpu.data 151474.193350                       # average overall miss latency
system.cpu.dcache.demand_avg_miss_latency::total 151474.193350                       # average overall miss latency
system.cpu.dcache.overall_avg_miss_latency::cpu.data 151474.193350                       # average overall miss latency
system.cpu.dcache.overall_avg_miss_latency::total 151474.193350                       # average overall miss latency
system.cpu.dcache.blocked_cycles::no_mshrs            0                       # number of cycles access was blocked
system.cpu.dcache.blocked_cycles::no_targets            0                       # number of cycles access was blocked
system.cpu.dcache.blocked::no_mshrs                 0                       # number of cycles access was blocked
system.cpu.dcache.blocked::no_targets               0                       # number of cycles access was blocked
system.cpu.dcache.avg_blocked_cycles::no_mshrs          nan                       # average number of cycles each access was blocked
system.cpu.dcache.avg_blocked_cycles::no_targets          nan                       # average number of cycles each access was blocked
system.cpu.dcache.writebacks::writebacks        43369                       # number of writebacks
system.cpu.dcache.writebacks::total             43369                       # number of writebacks
system.cpu.dcache.ReadReq_mshr_misses::cpu.data        38714                       # number of ReadReq MSHR misses
system.cpu.dcache.ReadReq_mshr_misses::total        38714                       # number of ReadReq MSHR misses
system.cpu.dcache.WriteReq_mshr_misses::cpu.data         9975                       # number of WriteReq MSHR misses
system.cpu.dcache.WriteReq_mshr_misses::total         9975                       # number of WriteReq MSHR misses
system.cpu.dcache.demand_mshr_misses::cpu.data        48689                       # number of demand (read+write) MSHR misses
system.cpu.dcache.demand_mshr_misses::total        48689                       # number of demand (read+write) MSHR misses
system.cpu.dcache.overall_mshr_misses::cpu.data        48689                       # number of overall MSHR misses
system.cpu.dcache.overall_mshr_misses::total        48689                       # number of overall MSHR misses
system.cpu.dcache.ReadReq_mshr_miss_latency::cpu.data   5874918500                       # number of ReadReq MSHR miss cycles
system.cpu.dcache.ReadReq_mshr_miss_latency::total   5874918500                       # number of ReadReq MSHR miss cycles
system.cpu.dcache.WriteReq_mshr_miss_latency::cpu.data   1451519500                       # number of WriteReq MSHR miss cycles
system.cpu.dcache.WriteReq_mshr_miss_latency::total   1451519500                       # number of WriteReq MSHR miss cycles
system.cpu.dcache.demand_mshr_miss_latency::cpu.data   7326438000                       # number of demand (read+write) MSHR miss cycles
system.cpu.dcache.demand_mshr_miss_latency::total   7326438000                       # number of demand (read+write) MSHR miss cycles
system.cpu.dcache.overall_mshr_miss_latency::cpu.data   7326438000                       # number of overall MSHR miss cycles
system.cpu.dcache.overall_mshr_miss_latency::total   7326438000                       # number of overall MSHR miss cycles
system.cpu.dcache.ReadReq_mshr_miss_rate::cpu.data     0.001854                       # mshr miss rate for ReadReq accesses
system.cpu.dcache.ReadReq_mshr_miss_rate::total     0.001854                       # mshr miss rate for ReadReq accesses
system.cpu.dcache.WriteReq_mshr_miss_rate::cpu.data     0.001715                       # mshr miss rate for WriteReq accesses
system.cpu.dcache.WriteReq_mshr_miss_rate::total     0.001715                       # mshr miss rate for WriteReq accesses
system.cpu.dcache.demand_mshr_miss_rate::cpu.data     0.001824                       # mshr miss rate for demand accesses
system.cpu.dcache.demand_mshr_miss_rate::total     0.001824                       # mshr miss rate for demand accesses
system.cpu.dcache.overall_mshr_miss_rate::cpu.data     0.001824                       # mshr miss rate for overall accesses
system.cpu.dcache.overall_mshr_miss_rate::total     0.001824                       # mshr miss rate for overall accesses
system.cpu.dcache.ReadReq_avg_mshr_miss_latency::cpu.data 151751.782301                       # average ReadReq mshr miss latency
system.cpu.dcache.ReadReq_avg_mshr_miss_latency::total 151751.782301                       # average ReadReq mshr miss latency
system.cpu.dcache.WriteReq_avg_mshr_miss_latency::cpu.data 145515.739348                       # average WriteReq mshr miss latency
system.cpu.dcache.WriteReq_avg_mshr_miss_latency::total 145515.739348                       # average WriteReq mshr miss latency
system.cpu.dcache.demand_avg_mshr_miss_latency::cpu.data 150474.193350                       # average overall mshr miss latency
system.cpu.dcache.demand_avg_mshr_miss_latency::total 150474.193350                       # average overall mshr miss latency
system.cpu.dcache.overall_avg_mshr_miss_latency::cpu.data 150474.193350                       # average overall mshr miss latency
system.cpu.dcache.overall_avg_mshr_miss_latency::total 150474.193350                       # average overall mshr miss latency
system.cpu.dcache.replacements                  44892                       # number of replacements
system.cpu.dtb_walker_cache.tags.pwrStateResidencyTicks::UNDEFINED  94006674500                       # Cumulative time (in ticks) in various power states
system.cpu.dtb_walker_cache.tags.tagsinuse            0                       # Cycle average of tags in use
system.cpu.dtb_walker_cache.tags.total_refs            0                       # Total number of references to valid blocks.
system.cpu.dtb_walker_cache.tags.sampled_refs            0                       # Sample count of references to valid blocks.
system.cpu.dtb_walker_cache.tags.avg_refs          nan                       # Average number of references to valid blocks.
system.cpu.dtb_walker_cache.tags.warmup_cycle            0                       # Cycle when the warmup percentage was hit.
system.cpu.dtb_walker_cache.tags.tag_accesses            0                       # Number of tag accesses
system.cpu.dtb_walker_cache.tags.data_accesses            0                       # Number of data accesses
system.cpu.dtb_walker_cache.pwrStateResidencyTicks::UNDEFINED  94006674500                       # Cumulative time (in ticks) in various power states
system.cpu.dtb_walker_cache.blocked_cycles::no_mshrs            0                       # number of cycles access was blocked
system.cpu.dtb_walker_cache.blocked_cycles::no_targets            0                       # number of cycles access was blocked
system.cpu.dtb_walker_cache.blocked::no_mshrs            0                       # number of cycles access was blocked
system.cpu.dtb_walker_cache.blocked::no_targets            0                       # number of cycles access was blocked
system.cpu.dtb_walker_cache.avg_blocked_cycles::no_mshrs          nan                       # average number of cycles each access was blocked
system.cpu.dtb_walker_cache.avg_blocked_cycles::no_targets          nan                       # average number of cycles each access was blocked
system.cpu.dtb_walker_cache.replacements            0                       # number of replacements
system.cpu.icache.tags.pwrStateResidencyTicks::UNDEFINED  94006674500                       # Cumulative time (in ticks) in various power states
system.cpu.icache.tags.tagsinuse           280.278676                       # Cycle average of tags in use
system.cpu.icache.tags.total_refs            59916890                       # Total number of references to valid blocks.
system.cpu.icache.tags.sampled_refs               355                       # Sample count of references to valid blocks.
system.cpu.icache.tags.avg_refs          168779.971831                       # Average number of references to valid blocks.
system.cpu.icache.tags.warmup_cycle            445500                       # Cycle when the warmup percentage was hit.
system.cpu.icache.tags.occ_blocks::cpu.inst   280.278676                       # Average occupied blocks per requestor
system.cpu.icache.tags.occ_percent::cpu.inst     0.547419                       # Average percentage of cache occupancy
system.cpu.icache.tags.occ_percent::total     0.547419                       # Average percentage of cache occupancy
system.cpu.icache.tags.occ_task_id_blocks::1024          309                       # Occupied blocks per task id
system.cpu.icache.tags.age_task_id_blocks_1024::0           15                       # Occupied blocks per task id
system.cpu.icache.tags.age_task_id_blocks_1024::1           23                       # Occupied blocks per task id
system.cpu.icache.tags.age_task_id_blocks_1024::4          271                       # Occupied blocks per task id
system.cpu.icache.tags.occ_task_id_percent::1024     0.603516                       # Percentage of cache occupancy per task id
system.cpu.icache.tags.tag_accesses         119834135                       # Number of tag accesses
system.cpu.icache.tags.data_accesses        119834135                       # Number of data accesses
system.cpu.icache.pwrStateResidencyTicks::UNDEFINED  94006674500                       # Cumulative time (in ticks) in various power states
system.cpu.icache.ReadReq_hits::cpu.inst     59916535                       # number of ReadReq hits
system.cpu.icache.ReadReq_hits::total        59916535                       # number of ReadReq hits
system.cpu.icache.demand_hits::cpu.inst      59916535                       # number of demand (read+write) hits
system.cpu.icache.demand_hits::total         59916535                       # number of demand (read+write) hits
system.cpu.icache.overall_hits::cpu.inst     59916535                       # number of overall hits
system.cpu.icache.overall_hits::total        59916535                       # number of overall hits
system.cpu.icache.ReadReq_misses::cpu.inst          355                       # number of ReadReq misses
system.cpu.icache.ReadReq_misses::total           355                       # number of ReadReq misses
system.cpu.icache.demand_misses::cpu.inst          355                       # number of demand (read+write) misses
system.cpu.icache.demand_misses::total            355                       # number of demand (read+write) misses
system.cpu.icache.overall_misses::cpu.inst          355                       # number of overall misses
system.cpu.icache.overall_misses::total           355                       # number of overall misses
system.cpu.icache.ReadReq_miss_latency::cpu.inst     69432000                       # number of ReadReq miss cycles
system.cpu.icache.ReadReq_miss_latency::total     69432000                       # number of ReadReq miss cycles
system.cpu.icache.demand_miss_latency::cpu.inst     69432000                       # number of demand (read+write) miss cycles
system.cpu.icache.demand_miss_latency::total     69432000                       # number of demand (read+write) miss cycles
system.cpu.icache.overall_miss_latency::cpu.inst     69432000                       # number of overall miss cycles
system.cpu.icache.overall_miss_latency::total     69432000                       # number of overall miss cycles
system.cpu.icache.ReadReq_accesses::cpu.inst     59916890                       # number of ReadReq accesses(hits+misses)
system.cpu.icache.ReadReq_accesses::total     59916890                       # number of ReadReq accesses(hits+misses)
system.cpu.icache.demand_accesses::cpu.inst     59916890                       # number of demand (read+write) accesses
system.cpu.icache.demand_accesses::total     59916890                       # number of demand (read+write) accesses
system.cpu.icache.overall_accesses::cpu.inst     59916890                       # number of overall (read+write) accesses
system.cpu.icache.overall_accesses::total     59916890                       # number of overall (read+write) accesses
system.cpu.icache.ReadReq_miss_rate::cpu.inst     0.000006                       # miss rate for ReadReq accesses
system.cpu.icache.ReadReq_miss_rate::total     0.000006                       # miss rate for ReadReq accesses
system.cpu.icache.demand_miss_rate::cpu.inst     0.000006                       # miss rate for demand accesses
system.cpu.icache.demand_miss_rate::total     0.000006                       # miss rate for demand accesses
system.cpu.icache.overall_miss_rate::cpu.inst     0.000006                       # miss rate for overall accesses
system.cpu.icache.overall_miss_rate::total     0.000006                       # miss rate for overall accesses
system.cpu.icache.ReadReq_avg_miss_latency::cpu.inst 195583.098592                       # average ReadReq miss latency
system.cpu.icache.ReadReq_avg_miss_latency::total 195583.098592                       # average ReadReq miss latency
system.cpu.icache.demand_avg_miss_latency::cpu.inst 195583.098592                       # average overall miss latency
system.cpu.icache.demand_avg_miss_latency::total 195583.098592                       # average overall miss latency
system.cpu.icache.overall_avg_miss_latency::cpu.inst 195583.098592                       # average overall miss latency
system.cpu.icache.overall_avg_miss_latency::total 195583.098592                       # average overall miss latency
system.cpu.icache.blocked_cycles::no_mshrs            0                       # number of cycles access was blocked
system.cpu.icache.blocked_cycles::no_targets            0                       # number of cycles access was blocked
system.cpu.icache.blocked::no_mshrs                 0                       # number of cycles access was blocked
system.cpu.icache.blocked::no_targets               0                       # number of cycles access was blocked
system.cpu.icache.avg_blocked_cycles::no_mshrs          nan                       # average number of cycles each access was blocked
system.cpu.icache.avg_blocked_cycles::no_targets          nan                       # average number of cycles each access was blocked
system.cpu.icache.writebacks::writebacks           46                       # number of writebacks
system.cpu.icache.writebacks::total                46                       # number of writebacks
system.cpu.icache.ReadReq_mshr_misses::cpu.inst          355                       # number of ReadReq MSHR misses
system.cpu.icache.ReadReq_mshr_misses::total          355                       # number of ReadReq MSHR misses
system.cpu.icache.demand_mshr_misses::cpu.inst          355                       # number of demand (read+write) MSHR misses
system.cpu.icache.demand_mshr_misses::total          355                       # number of demand (read+write) MSHR misses
system.cpu.icache.overall_mshr_misses::cpu.inst          355                       # number of overall MSHR misses
system.cpu.icache.overall_mshr_misses::total          355                       # number of overall MSHR misses
system.cpu.icache.ReadReq_mshr_miss_latency::cpu.inst     69077000                       # number of ReadReq MSHR miss cycles
system.cpu.icache.ReadReq_mshr_miss_latency::total     69077000                       # number of ReadReq MSHR miss cycles
system.cpu.icache.demand_mshr_miss_latency::cpu.inst     69077000                       # number of demand (read+write) MSHR miss cycles
system.cpu.icache.demand_mshr_miss_latency::total     69077000                       # number of demand (read+write) MSHR miss cycles
system.cpu.icache.overall_mshr_miss_latency::cpu.inst     69077000                       # number of overall MSHR miss cycles
system.cpu.icache.overall_mshr_miss_latency::total     69077000                       # number of overall MSHR miss cycles
system.cpu.icache.ReadReq_mshr_miss_rate::cpu.inst     0.000006                       # mshr miss rate for ReadReq accesses
system.cpu.icache.ReadReq_mshr_miss_rate::total     0.000006                       # mshr miss rate for ReadReq accesses
system.cpu.icache.demand_mshr_miss_rate::cpu.inst     0.000006                       # mshr miss rate for demand accesses
system.cpu.icache.demand_mshr_miss_rate::total     0.000006                       # mshr miss rate for demand accesses
system.cpu.icache.overall_mshr_miss_rate::cpu.inst     0.000006                       # mshr miss rate for overall accesses
system.cpu.icache.overall_mshr_miss_rate::total     0.000006                       # mshr miss rate for overall accesses
system.cpu.icache.ReadReq_avg_mshr_miss_latency::cpu.inst 194583.098592                       # average ReadReq mshr miss latency
system.cpu.icache.ReadReq_avg_mshr_miss_latency::total 194583.098592                       # average ReadReq mshr miss latency
system.cpu.icache.demand_avg_mshr_miss_latency::cpu.inst 194583.098592                       # average overall mshr miss latency
system.cpu.icache.demand_avg_mshr_miss_latency::total 194583.098592                       # average overall mshr miss latency
system.cpu.icache.overall_avg_mshr_miss_latency::cpu.inst 194583.098592                       # average overall mshr miss latency
system.cpu.icache.overall_avg_mshr_miss_latency::total 194583.098592                       # average overall mshr miss latency
system.cpu.icache.replacements                     46                       # number of replacements
system.cpu.itb_walker_cache.tags.pwrStateResidencyTicks::UNDEFINED  94006674500                       # Cumulative time (in ticks) in various power states
system.cpu.itb_walker_cache.tags.tagsinuse            0                       # Cycle average of tags in use
system.cpu.itb_walker_cache.tags.total_refs            0                       # Total number of references to valid blocks.
system.cpu.itb_walker_cache.tags.sampled_refs            0                       # Sample count of references to valid blocks.
system.cpu.itb_walker_cache.tags.avg_refs          nan                       # Average number of references to valid blocks.
system.cpu.itb_walker_cache.tags.warmup_cycle            0                       # Cycle when the warmup percentage was hit.
system.cpu.itb_walker_cache.tags.tag_accesses            0                       # Number of tag accesses
system.cpu.itb_walker_cache.tags.data_accesses            0                       # Number of data accesses
system.cpu.itb_walker_cache.pwrStateResidencyTicks::UNDEFINED  94006674500                       # Cumulative time (in ticks) in various power states
system.cpu.itb_walker_cache.blocked_cycles::no_mshrs            0                       # number of cycles access was blocked
system.cpu.itb_walker_cache.blocked_cycles::no_targets            0                       # number of cycles access was blocked
system.cpu.itb_walker_cache.blocked::no_mshrs            0                       # number of cycles access was blocked
system.cpu.itb_walker_cache.blocked::no_targets            0                       # number of cycles access was blocked
system.cpu.itb_walker_cache.avg_blocked_cycles::no_mshrs          nan                       # average number of cycles each access was blocked
system.cpu.itb_walker_cache.avg_blocked_cycles::no_targets          nan                       # average number of cycles each access was blocked
system.cpu.itb_walker_cache.replacements            0                       # number of replacements
system.l2.tags.pwrStateResidencyTicks::UNDEFINED  94006674500                       # Cumulative time (in ticks) in various power states
system.l2.tags.tagsinuse                  2019.826170                       # Cycle average of tags in use
system.l2.tags.total_refs                       93982                       # Total number of references to valid blocks.
system.l2.tags.sampled_refs                     24189                       # Sample count of references to valid blocks.
system.l2.tags.avg_refs                      3.885320                       # Average number of references to valid blocks.
system.l2.tags.warmup_cycle                    435000                       # Cycle when the warmup percentage was hit.
system.l2.tags.occ_blocks::writebacks        1.512096                       # Average occupied blocks per requestor
system.l2.tags.occ_blocks::cpu.inst         10.889542                       # Average occupied blocks per requestor
system.l2.tags.occ_blocks::cpu.data       2007.424532                       # Average occupied blocks per requestor
system.l2.tags.occ_percent::writebacks       0.000738                       # Average percentage of cache occupancy
system.l2.tags.occ_percent::cpu.inst         0.005317                       # Average percentage of cache occupancy
system.l2.tags.occ_percent::cpu.data         0.980188                       # Average percentage of cache occupancy
system.l2.tags.occ_percent::total            0.986243                       # Average percentage of cache occupancy
system.l2.tags.occ_task_id_blocks::1024          2048                       # Occupied blocks per task id
system.l2.tags.age_task_id_blocks_1024::0           31                       # Occupied blocks per task id
system.l2.tags.age_task_id_blocks_1024::1           43                       # Occupied blocks per task id
system.l2.tags.age_task_id_blocks_1024::2           33                       # Occupied blocks per task id
system.l2.tags.age_task_id_blocks_1024::3           58                       # Occupied blocks per task id
system.l2.tags.age_task_id_blocks_1024::4         1883                       # Occupied blocks per task id
system.l2.tags.occ_task_id_percent::1024            1                       # Percentage of cache occupancy per task id
system.l2.tags.tag_accesses                    776045                       # Number of tag accesses
system.l2.tags.data_accesses                   776045                       # Number of data accesses
system.l2.pwrStateResidencyTicks::UNDEFINED  94006674500                       # Cumulative time (in ticks) in various power states
system.l2.WritebackDirty_hits::writebacks        43369                       # number of WritebackDirty hits
system.l2.WritebackDirty_hits::total            43369                       # number of WritebackDirty hits
system.l2.WritebackClean_hits::writebacks           46                       # number of WritebackClean hits
system.l2.WritebackClean_hits::total               46                       # number of WritebackClean hits
system.l2.UpgradeReq_hits::cpu.data              3285                       # number of UpgradeReq hits
system.l2.UpgradeReq_hits::total                 3285                       # number of UpgradeReq hits
system.l2.ReadExReq_hits::cpu.data                249                       # number of ReadExReq hits
system.l2.ReadExReq_hits::total                   249                       # number of ReadExReq hits
system.l2.ReadSharedReq_hits::cpu.data          21345                       # number of ReadSharedReq hits
system.l2.ReadSharedReq_hits::total             21345                       # number of ReadSharedReq hits
system.l2.demand_hits::cpu.data                 21594                       # number of demand (read+write) hits
system.l2.demand_hits::total                    21594                       # number of demand (read+write) hits
system.l2.overall_hits::cpu.data                21594                       # number of overall hits
system.l2.overall_hits::total                   21594                       # number of overall hits
system.l2.ReadExReq_misses::cpu.data             6441                       # number of ReadExReq misses
system.l2.ReadExReq_misses::total                6441                       # number of ReadExReq misses
system.l2.ReadCleanReq_misses::cpu.inst           355                       # number of ReadCleanReq misses
system.l2.ReadCleanReq_misses::total              355                       # number of ReadCleanReq misses
system.l2.ReadSharedReq_misses::cpu.data        17369                       # number of ReadSharedReq misses
system.l2.ReadSharedReq_misses::total           17369                       # number of ReadSharedReq misses
system.l2.demand_misses::cpu.inst                 355                       # number of demand (read+write) misses
system.l2.demand_misses::cpu.data               23810                       # number of demand (read+write) misses
system.l2.demand_misses::total                  24165                       # number of demand (read+write) misses
system.l2.overall_misses::cpu.inst                355                       # number of overall misses
system.l2.overall_misses::cpu.data              23810                       # number of overall misses
system.l2.overall_misses::total                 24165                       # number of overall misses
system.l2.ReadExReq_miss_latency::cpu.data   1399450000                       # number of ReadExReq miss cycles
system.l2.ReadExReq_miss_latency::total    1399450000                       # number of ReadExReq miss cycles
system.l2.ReadCleanReq_miss_latency::cpu.inst     68543000                       # number of ReadCleanReq miss cycles
system.l2.ReadCleanReq_miss_latency::total     68543000                       # number of ReadCleanReq miss cycles
system.l2.ReadSharedReq_miss_latency::cpu.data   5592724500                       # number of ReadSharedReq miss cycles
system.l2.ReadSharedReq_miss_latency::total   5592724500                       # number of ReadSharedReq miss cycles
system.l2.demand_miss_latency::cpu.inst      68543000                       # number of demand (read+write) miss cycles
system.l2.demand_miss_latency::cpu.data    6992174500                       # number of demand (read+write) miss cycles
system.l2.demand_miss_latency::total       7060717500                       # number of demand (read+write) miss cycles
system.l2.overall_miss_latency::cpu.inst     68543000                       # number of overall miss cycles
system.l2.overall_miss_latency::cpu.data   6992174500                       # number of overall miss cycles
system.l2.overall_miss_latency::total      7060717500                       # number of overall miss cycles
system.l2.WritebackDirty_accesses::writebacks        43369                       # number of WritebackDirty accesses(hits+misses)
system.l2.WritebackDirty_accesses::total        43369                       # number of WritebackDirty accesses(hits+misses)
system.l2.WritebackClean_accesses::writebacks           46                       # number of WritebackClean accesses(hits+misses)
system.l2.WritebackClean_accesses::total           46                       # number of WritebackClean accesses(hits+misses)
system.l2.UpgradeReq_accesses::cpu.data          3285                       # number of UpgradeReq accesses(hits+misses)
system.l2.UpgradeReq_accesses::total             3285                       # number of UpgradeReq accesses(hits+misses)
system.l2.ReadExReq_accesses::cpu.data           6690                       # number of ReadExReq accesses(hits+misses)
system.l2.ReadExReq_accesses::total              6690                       # number of ReadExReq accesses(hits+misses)
system.l2.ReadCleanReq_accesses::cpu.inst          355                       # number of ReadCleanReq accesses(hits+misses)
system.l2.ReadCleanReq_accesses::total            355                       # number of ReadCleanReq accesses(hits+misses)
system.l2.ReadSharedReq_accesses::cpu.data        38714                       # number of ReadSharedReq accesses(hits+misses)
system.l2.ReadSharedReq_accesses::total         38714                       # number of ReadSharedReq accesses(hits+misses)
system.l2.demand_accesses::cpu.inst               355                       # number of demand (read+write) accesses
system.l2.demand_accesses::cpu.data             45404                       # number of demand (read+write) accesses
system.l2.demand_accesses::total                45759                       # number of demand (read+write) accesses
system.l2.overall_accesses::cpu.inst              355                       # number of overall (read+write) accesses
system.l2.overall_accesses::cpu.data            45404                       # number of overall (read+write) accesses
system.l2.overall_accesses::total               45759                       # number of overall (read+write) accesses
system.l2.ReadExReq_miss_rate::cpu.data      0.962780                       # miss rate for ReadExReq accesses
system.l2.ReadExReq_miss_rate::total         0.962780                       # miss rate for ReadExReq accesses
system.l2.ReadCleanReq_miss_rate::cpu.inst            1                       # miss rate for ReadCleanReq accesses
system.l2.ReadCleanReq_miss_rate::total             1                       # miss rate for ReadCleanReq accesses
system.l2.ReadSharedReq_miss_rate::cpu.data     0.448649                       # miss rate for ReadSharedReq accesses
system.l2.ReadSharedReq_miss_rate::total     0.448649                       # miss rate for ReadSharedReq accesses
system.l2.demand_miss_rate::cpu.inst                1                       # miss rate for demand accesses
system.l2.demand_miss_rate::cpu.data         0.524403                       # miss rate for demand accesses
system.l2.demand_miss_rate::total            0.528093                       # miss rate for demand accesses
system.l2.overall_miss_rate::cpu.inst               1                       # miss rate for overall accesses
system.l2.overall_miss_rate::cpu.data        0.524403                       # miss rate for overall accesses
system.l2.overall_miss_rate::total           0.528093                       # miss rate for overall accesses
system.l2.ReadExReq_avg_miss_latency::cpu.data 217272.162708                       # average ReadExReq miss latency
system.l2.ReadExReq_avg_miss_latency::total 217272.162708                       # average ReadExReq miss latency
system.l2.ReadCleanReq_avg_miss_latency::cpu.inst 193078.873239                       # average ReadCleanReq miss latency
system.l2.ReadCleanReq_avg_miss_latency::total 193078.873239                       # average ReadCleanReq miss latency
system.l2.ReadSharedReq_avg_miss_latency::cpu.data 321994.616846                       # average ReadSharedReq miss latency
system.l2.ReadSharedReq_avg_miss_latency::total 321994.616846                       # average ReadSharedReq miss latency
system.l2.demand_avg_miss_latency::cpu.inst 193078.873239                       # average overall miss latency
system.l2.demand_avg_miss_latency::cpu.data 293665.455691                       # average overall miss latency
system.l2.demand_avg_miss_latency::total 292187.771570                       # average overall miss latency
system.l2.overall_avg_miss_latency::cpu.inst 193078.873239                       # average overall miss latency
system.l2.overall_avg_miss_latency::cpu.data 293665.455691                       # average overall miss latency
system.l2.overall_avg_miss_latency::total 292187.771570                       # average overall miss latency
system.l2.blocked_cycles::no_mshrs                  0                       # number of cycles access was blocked
system.l2.blocked_cycles::no_targets                0                       # number of cycles access was blocked
system.l2.blocked::no_mshrs                         0                       # number of cycles access was blocked
system.l2.blocked::no_targets                       0                       # number of cycles access was blocked
system.l2.avg_blocked_cycles::no_mshrs            nan                       # average number of cycles each access was blocked
system.l2.avg_blocked_cycles::no_targets          nan                       # average number of cycles each access was blocked
system.l2.writebacks::writebacks                21332                       # number of writebacks
system.l2.writebacks::total                     21332                       # number of writebacks
system.l2.ReadExReq_mshr_misses::cpu.data         6441                       # number of ReadExReq MSHR misses
system.l2.ReadExReq_mshr_misses::total           6441                       # number of ReadExReq MSHR misses
system.l2.ReadCleanReq_mshr_misses::cpu.inst          355                       # number of ReadCleanReq MSHR misses
system.l2.ReadCleanReq_mshr_misses::total          355                       # number of ReadCleanReq MSHR misses
system.l2.ReadSharedReq_mshr_misses::cpu.data        17369                       # number of ReadSharedReq MSHR misses
system.l2.ReadSharedReq_mshr_misses::total        17369                       # number of ReadSharedReq MSHR misses
system.l2.demand_mshr_misses::cpu.inst            355                       # number of demand (read+write) MSHR misses
system.l2.demand_mshr_misses::cpu.data          23810                       # number of demand (read+write) MSHR misses
system.l2.demand_mshr_misses::total             24165                       # number of demand (read+write) MSHR misses
system.l2.overall_mshr_misses::cpu.inst           355                       # number of overall MSHR misses
system.l2.overall_mshr_misses::cpu.data         23810                       # number of overall MSHR misses
system.l2.overall_mshr_misses::total            24165                       # number of overall MSHR misses
system.l2.ReadExReq_mshr_miss_latency::cpu.data   1335040000                       # number of ReadExReq MSHR miss cycles
system.l2.ReadExReq_mshr_miss_latency::total   1335040000                       # number of ReadExReq MSHR miss cycles
system.l2.ReadCleanReq_mshr_miss_latency::cpu.inst     64993000                       # number of ReadCleanReq MSHR miss cycles
system.l2.ReadCleanReq_mshr_miss_latency::total     64993000                       # number of ReadCleanReq MSHR miss cycles
system.l2.ReadSharedReq_mshr_miss_latency::cpu.data   5419034500                       # number of ReadSharedReq MSHR miss cycles
system.l2.ReadSharedReq_mshr_miss_latency::total   5419034500                       # number of ReadSharedReq MSHR miss cycles
system.l2.demand_mshr_miss_latency::cpu.inst     64993000                       # number of demand (read+write) MSHR miss cycles
system.l2.demand_mshr_miss_latency::cpu.data   6754074500                       # number of demand (read+write) MSHR miss cycles
system.l2.demand_mshr_miss_latency::total   6819067500                       # number of demand (read+write) MSHR miss cycles
system.l2.overall_mshr_miss_latency::cpu.inst     64993000                       # number of overall MSHR miss cycles
system.l2.overall_mshr_miss_latency::cpu.data   6754074500                       # number of overall MSHR miss cycles
system.l2.overall_mshr_miss_latency::total   6819067500                       # number of overall MSHR miss cycles
system.l2.ReadExReq_mshr_miss_rate::cpu.data     0.962780                       # mshr miss rate for ReadExReq accesses
system.l2.ReadExReq_mshr_miss_rate::total     0.962780                       # mshr miss rate for ReadExReq accesses
system.l2.ReadCleanReq_mshr_miss_rate::cpu.inst            1                       # mshr miss rate for ReadCleanReq accesses
system.l2.ReadCleanReq_mshr_miss_rate::total            1                       # mshr miss rate for ReadCleanReq accesses
system.l2.ReadSharedReq_mshr_miss_rate::cpu.data     0.448649                       # mshr miss rate for ReadSharedReq accesses
system.l2.ReadSharedReq_mshr_miss_rate::total     0.448649                       # mshr miss rate for ReadSharedReq accesses
system.l2.demand_mshr_miss_rate::cpu.inst            1                       # mshr miss rate for demand accesses
system.l2.demand_mshr_miss_rate::cpu.data     0.524403                       # mshr miss rate for demand accesses
system.l2.demand_mshr_miss_rate::total       0.528093                       # mshr miss rate for demand accesses
system.l2.overall_mshr_miss_rate::cpu.inst            1                       # mshr miss rate for overall accesses
system.l2.overall_mshr_miss_rate::cpu.data     0.524403                       # mshr miss rate for overall accesses
system.l2.overall_mshr_miss_rate::total      0.528093                       # mshr miss rate for overall accesses
system.l2.ReadExReq_avg_mshr_miss_latency::cpu.data 207272.162708                       # average ReadExReq mshr miss latency
system.l2.ReadExReq_avg_mshr_miss_latency::total 207272.162708                       # average ReadExReq mshr miss latency
system.l2.ReadCleanReq_avg_mshr_miss_latency::cpu.inst 183078.873239                       # average ReadCleanReq mshr miss latency
system.l2.ReadCleanReq_avg_mshr_miss_latency::total 183078.873239                       # average ReadCleanReq mshr miss latency
system.l2.ReadSharedReq_avg_mshr_miss_latency::cpu.data 311994.616846                       # average ReadSharedReq mshr miss latency
system.l2.ReadSharedReq_avg_mshr_miss_latency::total 311994.616846                       # average ReadSharedReq mshr miss latency
system.l2.demand_avg_mshr_miss_latency::cpu.inst 183078.873239                       # average overall mshr miss latency
system.l2.demand_avg_mshr_miss_latency::cpu.data 283665.455691                       # average overall mshr miss latency
system.l2.demand_avg_mshr_miss_latency::total 282187.771570                       # average overall mshr miss latency
system.l2.overall_avg_mshr_miss_latency::cpu.inst 183078.873239                       # average overall mshr miss latency
system.l2.overall_avg_mshr_miss_latency::cpu.data 283665.455691                       # average overall mshr miss latency
system.l2.overall_avg_mshr_miss_latency::total 282187.771570                       # average overall mshr miss latency
system.l2.replacements                          22141                       # number of replacements
system.l3.tags.pwrStateResidencyTicks::UNDEFINED  94006674500                       # Cumulative time (in ticks) in various power states
system.l3.tags.tagsinuse                  2020.670308                       # Cycle average of tags in use
system.l3.tags.total_refs                       45524                       # Total number of references to valid blocks.
system.l3.tags.sampled_refs                     39672                       # Sample count of references to valid blocks.
system.l3.tags.avg_refs                      1.147510                       # Average number of references to valid blocks.
system.l3.tags.warmup_cycle                    418000                       # Cycle when the warmup percentage was hit.
system.l3.tags.occ_blocks::writebacks     1194.926230                       # Average occupied blocks per requestor
system.l3.tags.occ_blocks::cpu.inst         12.043218                       # Average occupied blocks per requestor
system.l3.tags.occ_blocks::cpu.data        813.700861                       # Average occupied blocks per requestor
system.l3.tags.occ_percent::writebacks       0.583460                       # Average percentage of cache occupancy
system.l3.tags.occ_percent::cpu.inst         0.005880                       # Average percentage of cache occupancy
system.l3.tags.occ_percent::cpu.data         0.397315                       # Average percentage of cache occupancy
system.l3.tags.occ_percent::total            0.986655                       # Average percentage of cache occupancy
system.l3.tags.occ_task_id_blocks::1024          2048                       # Occupied blocks per task id
system.l3.tags.age_task_id_blocks_1024::0           27                       # Occupied blocks per task id
system.l3.tags.age_task_id_blocks_1024::1           39                       # Occupied blocks per task id
system.l3.tags.age_task_id_blocks_1024::3            2                       # Occupied blocks per task id
system.l3.tags.age_task_id_blocks_1024::4         1980                       # Occupied blocks per task id
system.l3.tags.occ_task_id_percent::1024            1                       # Percentage of cache occupancy per task id
system.l3.tags.tag_accesses                    775848                       # Number of tag accesses
system.l3.tags.data_accesses                   775848                       # Number of data accesses
system.l3.pwrStateResidencyTicks::UNDEFINED  94006674500                       # Cumulative time (in ticks) in various power states
system.l3.WritebackDirty_hits::writebacks        21332                       # number of WritebackDirty hits
system.l3.WritebackDirty_hits::total            21332                       # number of WritebackDirty hits
system.l3.ReadExReq_hits::cpu.data                 39                       # number of ReadExReq hits
system.l3.ReadExReq_hits::total                    39                       # number of ReadExReq hits
system.l3.ReadSharedReq_hits::cpu.data           3866                       # number of ReadSharedReq hits
system.l3.ReadSharedReq_hits::total              3866                       # number of ReadSharedReq hits
system.l3.demand_hits::cpu.data                  3905                       # number of demand (read+write) hits
system.l3.demand_hits::total                     3905                       # number of demand (read+write) hits
system.l3.overall_hits::cpu.data                 3905                       # number of overall hits
system.l3.overall_hits::total                    3905                       # number of overall hits
system.l3.ReadExReq_misses::cpu.data             6402                       # number of ReadExReq misses
system.l3.ReadExReq_misses::total                6402                       # number of ReadExReq misses
system.l3.ReadSharedReq_misses::cpu.inst          355                       # number of ReadSharedReq misses
system.l3.ReadSharedReq_misses::cpu.data        13503                       # number of ReadSharedReq misses
system.l3.ReadSharedReq_misses::total           13858                       # number of ReadSharedReq misses
system.l3.demand_misses::cpu.inst                 355                       # number of demand (read+write) misses
system.l3.demand_misses::cpu.data               19905                       # number of demand (read+write) misses
system.l3.demand_misses::total                  20260                       # number of demand (read+write) misses
system.l3.overall_misses::cpu.inst                355                       # number of overall misses
system.l3.overall_misses::cpu.data              19905                       # number of overall misses
system.l3.overall_misses::total                 20260                       # number of overall misses
system.l3.ReadExReq_miss_latency::cpu.data   1260286000                       # number of ReadExReq miss cycles
system.l3.ReadExReq_miss_latency::total    1260286000                       # number of ReadExReq miss cycles
system.l3.ReadSharedReq_miss_latency::cpu.inst     60910500                       # number of ReadSharedReq miss cycles
system.l3.ReadSharedReq_miss_latency::cpu.data   5151636000                       # number of ReadSharedReq miss cycles
system.l3.ReadSharedReq_miss_latency::total   5212546500                       # number of ReadSharedReq miss cycles
system.l3.demand_miss_latency::cpu.inst      60910500                       # number of demand (read+write) miss cycles
system.l3.demand_miss_latency::cpu.data    6411922000                       # number of demand (read+write) miss cycles
system.l3.demand_miss_latency::total       6472832500                       # number of demand (read+write) miss cycles
system.l3.overall_miss_latency::cpu.inst     60910500                       # number of overall miss cycles
system.l3.overall_miss_latency::cpu.data   6411922000                       # number of overall miss cycles
system.l3.overall_miss_latency::total      6472832500                       # number of overall miss cycles
system.l3.WritebackDirty_accesses::writebacks        21332                       # number of WritebackDirty accesses(hits+misses)
system.l3.WritebackDirty_accesses::total        21332                       # number of WritebackDirty accesses(hits+misses)
system.l3.ReadExReq_accesses::cpu.data           6441                       # number of ReadExReq accesses(hits+misses)
system.l3.ReadExReq_accesses::total              6441                       # number of ReadExReq accesses(hits+misses)
system.l3.ReadSharedReq_accesses::cpu.inst          355                       # number of ReadSharedReq accesses(hits+misses)
system.l3.ReadSharedReq_accesses::cpu.data        17369                       # number of ReadSharedReq accesses(hits+misses)
system.l3.ReadSharedReq_accesses::total         17724                       # number of ReadSharedReq accesses(hits+misses)
system.l3.demand_accesses::cpu.inst               355                       # number of demand (read+write) accesses
system.l3.demand_accesses::cpu.data             23810                       # number of demand (read+write) accesses
system.l3.demand_accesses::total                24165                       # number of demand (read+write) accesses
system.l3.overall_accesses::cpu.inst              355                       # number of overall (read+write) accesses
system.l3.overall_accesses::cpu.data            23810                       # number of overall (read+write) accesses
system.l3.overall_accesses::total               24165                       # number of overall (read+write) accesses
system.l3.ReadExReq_miss_rate::cpu.data      0.993945                       # miss rate for ReadExReq accesses
system.l3.ReadExReq_miss_rate::total         0.993945                       # miss rate for ReadExReq accesses
system.l3.ReadSharedReq_miss_rate::cpu.inst            1                       # miss rate for ReadSharedReq accesses
system.l3.ReadSharedReq_miss_rate::cpu.data     0.777420                       # miss rate for ReadSharedReq accesses
system.l3.ReadSharedReq_miss_rate::total     0.781878                       # miss rate for ReadSharedReq accesses
system.l3.demand_miss_rate::cpu.inst                1                       # miss rate for demand accesses
system.l3.demand_miss_rate::cpu.data         0.835993                       # miss rate for demand accesses
system.l3.demand_miss_rate::total            0.838403                       # miss rate for demand accesses
system.l3.overall_miss_rate::cpu.inst               1                       # miss rate for overall accesses
system.l3.overall_miss_rate::cpu.data        0.835993                       # miss rate for overall accesses
system.l3.overall_miss_rate::total           0.838403                       # miss rate for overall accesses
system.l3.ReadExReq_avg_miss_latency::cpu.data 196858.169322                       # average ReadExReq miss latency
system.l3.ReadExReq_avg_miss_latency::total 196858.169322                       # average ReadExReq miss latency
system.l3.ReadSharedReq_avg_miss_latency::cpu.inst 171578.873239                       # average ReadSharedReq miss latency
system.l3.ReadSharedReq_avg_miss_latency::cpu.data 381517.884914                       # average ReadSharedReq miss latency
system.l3.ReadSharedReq_avg_miss_latency::total 376139.883100                       # average ReadSharedReq miss latency
system.l3.demand_avg_miss_latency::cpu.inst 171578.873239                       # average overall miss latency
system.l3.demand_avg_miss_latency::cpu.data 322126.199447                       # average overall miss latency
system.l3.demand_avg_miss_latency::total 319488.277394                       # average overall miss latency
system.l3.overall_avg_miss_latency::cpu.inst 171578.873239                       # average overall miss latency
system.l3.overall_avg_miss_latency::cpu.data 322126.199447                       # average overall miss latency
system.l3.overall_avg_miss_latency::total 319488.277394                       # average overall miss latency
system.l3.blocked_cycles::no_mshrs                  0                       # number of cycles access was blocked
system.l3.blocked_cycles::no_targets                0                       # number of cycles access was blocked
system.l3.blocked::no_mshrs                         0                       # number of cycles access was blocked
system.l3.blocked::no_targets                       0                       # number of cycles access was blocked
system.l3.avg_blocked_cycles::no_mshrs            nan                       # average number of cycles each access was blocked
system.l3.avg_blocked_cycles::no_targets          nan                       # average number of cycles each access was blocked
system.l3.writebacks::writebacks                16534                       # number of writebacks
system.l3.writebacks::total                     16534                       # number of writebacks
system.l3.CleanEvict_mshr_misses::writebacks          487                       # number of CleanEvict MSHR misses
system.l3.CleanEvict_mshr_misses::total           487                       # number of CleanEvict MSHR misses
system.l3.ReadExReq_mshr_misses::cpu.data         6402                       # number of ReadExReq MSHR misses
system.l3.ReadExReq_mshr_misses::total           6402                       # number of ReadExReq MSHR misses
system.l3.ReadSharedReq_mshr_misses::cpu.inst          355                       # number of ReadSharedReq MSHR misses
system.l3.ReadSharedReq_mshr_misses::cpu.data        13503                       # number of ReadSharedReq MSHR misses
system.l3.ReadSharedReq_mshr_misses::total        13858                       # number of ReadSharedReq MSHR misses
system.l3.demand_mshr_misses::cpu.inst            355                       # number of demand (read+write) MSHR misses
system.l3.demand_mshr_misses::cpu.data          19905                       # number of demand (read+write) MSHR misses
system.l3.demand_mshr_misses::total             20260                       # number of demand (read+write) MSHR misses
system.l3.overall_mshr_misses::cpu.inst           355                       # number of overall MSHR misses
system.l3.overall_mshr_misses::cpu.data         19905                       # number of overall MSHR misses
system.l3.overall_mshr_misses::total            20260                       # number of overall MSHR misses
system.l3.ReadExReq_mshr_miss_latency::cpu.data   1157854000                       # number of ReadExReq MSHR miss cycles
system.l3.ReadExReq_mshr_miss_latency::total   1157854000                       # number of ReadExReq MSHR miss cycles
system.l3.ReadSharedReq_mshr_miss_latency::cpu.inst     55230500                       # number of ReadSharedReq MSHR miss cycles
system.l3.ReadSharedReq_mshr_miss_latency::cpu.data   4935588000                       # number of ReadSharedReq MSHR miss cycles
system.l3.ReadSharedReq_mshr_miss_latency::total   4990818500                       # number of ReadSharedReq MSHR miss cycles
system.l3.demand_mshr_miss_latency::cpu.inst     55230500                       # number of demand (read+write) MSHR miss cycles
system.l3.demand_mshr_miss_latency::cpu.data   6093442000                       # number of demand (read+write) MSHR miss cycles
system.l3.demand_mshr_miss_latency::total   6148672500                       # number of demand (read+write) MSHR miss cycles
system.l3.overall_mshr_miss_latency::cpu.inst     55230500                       # number of overall MSHR miss cycles
system.l3.overall_mshr_miss_latency::cpu.data   6093442000                       # number of overall MSHR miss cycles
system.l3.overall_mshr_miss_latency::total   6148672500                       # number of overall MSHR miss cycles
system.l3.CleanEvict_mshr_miss_rate::writebacks          inf                       # mshr miss rate for CleanEvict accesses
system.l3.CleanEvict_mshr_miss_rate::total          inf                       # mshr miss rate for CleanEvict accesses
system.l3.ReadExReq_mshr_miss_rate::cpu.data     0.993945                       # mshr miss rate for ReadExReq accesses
system.l3.ReadExReq_mshr_miss_rate::total     0.993945                       # mshr miss rate for ReadExReq accesses
system.l3.ReadSharedReq_mshr_miss_rate::cpu.inst            1                       # mshr miss rate for ReadSharedReq accesses
system.l3.ReadSharedReq_mshr_miss_rate::cpu.data     0.777420                       # mshr miss rate for ReadSharedReq accesses
system.l3.ReadSharedReq_mshr_miss_rate::total     0.781878                       # mshr miss rate for ReadSharedReq accesses
system.l3.demand_mshr_miss_rate::cpu.inst            1                       # mshr miss rate for demand accesses
system.l3.demand_mshr_miss_rate::cpu.data     0.835993                       # mshr miss rate for demand accesses
system.l3.demand_mshr_miss_rate::total       0.838403                       # mshr miss rate for demand accesses
system.l3.overall_mshr_miss_rate::cpu.inst            1                       # mshr miss rate for overall accesses
system.l3.overall_mshr_miss_rate::cpu.data     0.835993                       # mshr miss rate for overall accesses
system.l3.overall_mshr_miss_rate::total      0.838403                       # mshr miss rate for overall accesses
system.l3.ReadExReq_avg_mshr_miss_latency::cpu.data 180858.169322                       # average ReadExReq mshr miss latency
system.l3.ReadExReq_avg_mshr_miss_latency::total 180858.169322                       # average ReadExReq mshr miss latency
system.l3.ReadSharedReq_avg_mshr_miss_latency::cpu.inst 155578.873239                       # average ReadSharedReq mshr miss latency
system.l3.ReadSharedReq_avg_mshr_miss_latency::cpu.data 365517.884914                       # average ReadSharedReq mshr miss latency
system.l3.ReadSharedReq_avg_mshr_miss_latency::total 360139.883100                       # average ReadSharedReq mshr miss latency
system.l3.demand_avg_mshr_miss_latency::cpu.inst 155578.873239                       # average overall mshr miss latency
system.l3.demand_avg_mshr_miss_latency::cpu.data 306126.199447                       # average overall mshr miss latency
system.l3.demand_avg_mshr_miss_latency::total 303488.277394                       # average overall mshr miss latency
system.l3.overall_avg_mshr_miss_latency::cpu.inst 155578.873239                       # average overall mshr miss latency
system.l3.overall_avg_mshr_miss_latency::cpu.data 306126.199447                       # average overall mshr miss latency
system.l3.overall_avg_mshr_miss_latency::total 303488.277394                       # average overall mshr miss latency
system.l3.replacements                          37624                       # number of replacements
system.membus.snoop_filter.tot_requests         37890                       # Total number of requests made to the snoop filter.
system.membus.snoop_filter.hit_single_requests        17630                       # Number of requests hitting in the snoop filter with a single holder of the requested data.
system.membus.snoop_filter.hit_multi_requests            0                       # Number of requests hitting in the snoop filter with multiple (>1) holders of the requested data.
system.membus.snoop_filter.tot_snoops               0                       # Total number of snoops made to the snoop filter.
system.membus.snoop_filter.hit_single_snoops            0                       # Number of snoops hitting in the snoop filter with a single holder of the requested data.
system.membus.snoop_filter.hit_multi_snoops            0                       # Number of snoops hitting in the snoop filter with multiple (>1) holders of the requested data.
system.membus.pwrStateResidencyTicks::UNDEFINED  94006674500                       # Cumulative time (in ticks) in various power states
system.membus.trans_dist::ReadResp              13858                       # Transaction distribution
system.membus.trans_dist::WritebackDirty        16534                       # Transaction distribution
system.membus.trans_dist::CleanEvict              504                       # Transaction distribution
system.membus.trans_dist::ReadExReq              6402                       # Transaction distribution
system.membus.trans_dist::ReadExResp             6402                       # Transaction distribution
system.membus.trans_dist::ReadSharedReq         13858                       # Transaction distribution
system.membus.pkt_count_system.l3.mem_side::system.mem_ctrls.port        57558                       # Packet count per connected master and slave (bytes)
system.membus.pkt_count_system.l3.mem_side::total        57558                       # Packet count per connected master and slave (bytes)
system.membus.pkt_count::total                  57558                       # Packet count per connected master and slave (bytes)
system.membus.pkt_size_system.l3.mem_side::system.mem_ctrls.port      2354816                       # Cumulative packet size per connected master and slave (bytes)
system.membus.pkt_size_system.l3.mem_side::total      2354816                       # Cumulative packet size per connected master and slave (bytes)
system.membus.pkt_size::total                 2354816                       # Cumulative packet size per connected master and slave (bytes)
system.membus.snoops                                0                       # Total snoops (count)
system.membus.snoopTraffic                          0                       # Total snoop traffic (bytes)
system.membus.snoop_fanout::samples             20260                       # Request fanout histogram
system.membus.snoop_fanout::mean                    0                       # Request fanout histogram
system.membus.snoop_fanout::stdev                   0                       # Request fanout histogram
system.membus.snoop_fanout::underflows              0      0.00%      0.00% # Request fanout histogram
system.membus.snoop_fanout::0                   20260    100.00%    100.00% # Request fanout histogram
system.membus.snoop_fanout::1                       0      0.00%    100.00% # Request fanout histogram
system.membus.snoop_fanout::overflows               0      0.00%    100.00% # Request fanout histogram
system.membus.snoop_fanout::min_value               0                       # Request fanout histogram
system.membus.snoop_fanout::max_value               0                       # Request fanout histogram
system.membus.snoop_fanout::total               20260                       # Request fanout histogram
system.membus.reqLayer2.occupancy           121416000                       # Layer occupancy (ticks)
system.membus.reqLayer2.utilization               0.1                       # Layer utilization (%)
system.membus.respLayer1.occupancy          110961000                       # Layer occupancy (ticks)
system.membus.respLayer1.utilization              0.1                       # Layer utilization (%)
system.tol2bus.snoop_filter.tot_requests        93982                       # Total number of requests made to the snoop filter.
system.tol2bus.snoop_filter.hit_single_requests        48223                       # Number of requests hitting in the snoop filter with a single holder of the requested data.
system.tol2bus.snoop_filter.hit_multi_requests            0                       # Number of requests hitting in the snoop filter with multiple (>1) holders of the requested data.
system.tol2bus.snoop_filter.tot_snoops           1096                       # Total number of snoops made to the snoop filter.
system.tol2bus.snoop_filter.hit_single_snoops         1096                       # Number of snoops hitting in the snoop filter with a single holder of the requested data.
system.tol2bus.snoop_filter.hit_multi_snoops            0                       # Number of snoops hitting in the snoop filter with multiple (>1) holders of the requested data.
system.tol2bus.pwrStateResidencyTicks::UNDEFINED  94006674500                       # Cumulative time (in ticks) in various power states
system.tol2bus.trans_dist::ReadResp             39069                       # Transaction distribution
system.tol2bus.trans_dist::WritebackDirty        64701                       # Transaction distribution
system.tol2bus.trans_dist::WritebackClean           46                       # Transaction distribution
system.tol2bus.trans_dist::CleanEvict           23405                       # Transaction distribution
system.tol2bus.trans_dist::UpgradeReq            3285                       # Transaction distribution
system.tol2bus.trans_dist::UpgradeResp           3285                       # Transaction distribution
system.tol2bus.trans_dist::ReadExReq             6690                       # Transaction distribution
system.tol2bus.trans_dist::ReadExResp            6690                       # Transaction distribution
system.tol2bus.trans_dist::ReadCleanReq           355                       # Transaction distribution
system.tol2bus.trans_dist::ReadSharedReq        38714                       # Transaction distribution
system.tol2bus.pkt_count_system.cpu.icache.mem_side::system.l2.cpu_side          756                       # Packet count per connected master and slave (bytes)
system.tol2bus.pkt_count_system.cpu.dcache.mem_side::system.l2.cpu_side       142270                       # Packet count per connected master and slave (bytes)
system.tol2bus.pkt_count::total                143026                       # Packet count per connected master and slave (bytes)
system.tol2bus.pkt_size_system.cpu.icache.mem_side::system.l2.cpu_side        25664                       # Cumulative packet size per connected master and slave (bytes)
system.tol2bus.pkt_size_system.cpu.dcache.mem_side::system.l2.cpu_side      5681472                       # Cumulative packet size per connected master and slave (bytes)
system.tol2bus.pkt_size::total                5707136                       # Cumulative packet size per connected master and slave (bytes)
system.tol2bus.snoops                           43214                       # Total snoops (count)
system.tol2bus.snoopTraffic                   1365248                       # Total snoop traffic (bytes)
system.tol2bus.snoop_fanout::samples            92258                       # Request fanout histogram
system.tol2bus.snoop_fanout::mean            0.011880                       # Request fanout histogram
system.tol2bus.snoop_fanout::stdev           0.108345                       # Request fanout histogram
system.tol2bus.snoop_fanout::underflows             0      0.00%      0.00% # Request fanout histogram
system.tol2bus.snoop_fanout::0                  91162     98.81%     98.81% # Request fanout histogram
system.tol2bus.snoop_fanout::1                   1096      1.19%    100.00% # Request fanout histogram
system.tol2bus.snoop_fanout::2                      0      0.00%    100.00% # Request fanout histogram
system.tol2bus.snoop_fanout::3                      0      0.00%    100.00% # Request fanout histogram
system.tol2bus.snoop_fanout::4                      0      0.00%    100.00% # Request fanout histogram
system.tol2bus.snoop_fanout::overflows              0      0.00%    100.00% # Request fanout histogram
system.tol2bus.snoop_fanout::min_value              0                       # Request fanout histogram
system.tol2bus.snoop_fanout::max_value              1                       # Request fanout histogram
system.tol2bus.snoop_fanout::total              92258                       # Request fanout histogram
system.tol2bus.reqLayer0.occupancy           90406000                       # Layer occupancy (ticks)
system.tol2bus.reqLayer0.utilization              0.1                       # Layer utilization (%)
system.tol2bus.respLayer0.occupancy            532500                       # Layer occupancy (ticks)
system.tol2bus.respLayer0.utilization             0.0                       # Layer utilization (%)
system.tol2bus.respLayer1.occupancy          69748500                       # Layer occupancy (ticks)
system.tol2bus.respLayer1.utilization             0.1                       # Layer utilization (%)
system.tol3bus.snoop_filter.tot_requests        46011                       # Total number of requests made to the snoop filter.
system.tol3bus.snoop_filter.hit_single_requests        21846                       # Number of requests hitting in the snoop filter with a single holder of the requested data.
system.tol3bus.snoop_filter.hit_multi_requests            0                       # Number of requests hitting in the snoop filter with multiple (>1) holders of the requested data.
system.tol3bus.snoop_filter.tot_snoops          21073                       # Total number of snoops made to the snoop filter.
system.tol3bus.snoop_filter.hit_single_snoops        21073                       # Number of snoops hitting in the snoop filter with a single holder of the requested data.
system.tol3bus.snoop_filter.hit_multi_snoops            0                       # Number of snoops hitting in the snoop filter with multiple (>1) holders of the requested data.
system.tol3bus.pwrStateResidencyTicks::UNDEFINED  94006674500                       # Cumulative time (in ticks) in various power states
system.tol3bus.trans_dist::ReadResp             17724                       # Transaction distribution
system.tol3bus.trans_dist::WritebackDirty        37866                       # Transaction distribution
system.tol3bus.trans_dist::CleanEvict           21604                       # Transaction distribution
system.tol3bus.trans_dist::ReadExReq             6441                       # Transaction distribution
system.tol3bus.trans_dist::ReadExResp            6441                       # Transaction distribution
system.tol3bus.trans_dist::ReadSharedReq        17724                       # Transaction distribution
system.tol3bus.pkt_count_system.l2.mem_side::system.l3.cpu_side        70176                       # Packet count per connected master and slave (bytes)
system.tol3bus.pkt_size_system.l2.mem_side::system.l3.cpu_side      2911808                       # Cumulative packet size per connected master and slave (bytes)
system.tol3bus.snoops                           37624                       # Total snoops (count)
system.tol3bus.snoopTraffic                   1058176                       # Total snoop traffic (bytes)
system.tol3bus.snoop_fanout::samples            61789                       # Request fanout histogram
system.tol3bus.snoop_fanout::mean            0.341048                       # Request fanout histogram
system.tol3bus.snoop_fanout::stdev           0.474065                       # Request fanout histogram
system.tol3bus.snoop_fanout::underflows             0      0.00%      0.00% # Request fanout histogram
system.tol3bus.snoop_fanout::0                  40716     65.90%     65.90% # Request fanout histogram
system.tol3bus.snoop_fanout::1                  21073     34.10%    100.00% # Request fanout histogram
system.tol3bus.snoop_fanout::overflows              0      0.00%    100.00% # Request fanout histogram
system.tol3bus.snoop_fanout::min_value              0                       # Request fanout histogram
system.tol3bus.snoop_fanout::max_value              1                       # Request fanout histogram
system.tol3bus.snoop_fanout::total              61789                       # Request fanout histogram
system.tol3bus.reqLayer0.occupancy           44337500                       # Layer occupancy (ticks)
system.tol3bus.reqLayer0.utilization              0.0                       # Layer utilization (%)
system.tol3bus.respLayer0.occupancy          36247500                       # Layer occupancy (ticks)
system.tol3bus.respLayer0.utilization             0.0                       # Layer utilization (%)

---------- End Simulation Statistics   ----------
