
---------- Begin Simulation Statistics ----------
sim_seconds                                  0.093897                       # Number of seconds simulated
sim_ticks                                 93897088500                       # Number of ticks simulated
final_tick                                93897088500                       # Number of ticks from beginning of simulation (restored from checkpoints and never reset)
sim_freq                                 1000000000000                       # Frequency of simulated ticks
host_inst_rate                                1174590                       # Simulator instruction rate (inst/s)
host_op_rate                                  1933985                       # Simulator op (including micro ops) rate (op/s)
host_tick_rate                             2473452682                       # Simulator tick rate (ticks/s)
host_mem_usage                                 659612                       # Number of bytes of host memory used
host_seconds                                    37.96                       # Real time elapsed on the host
sim_insts                                    44589703                       # Number of instructions simulated
sim_ops                                      73417842                       # Number of ops (including micro ops) simulated
system.voltage_domain.voltage                       1                       # Voltage in Volts
system.clk_domain.clock                          1000                       # Clock period in ticks
system.mem_ctrls.pwrStateResidencyTicks::UNDEFINED  93897088500                       # Cumulative time (in ticks) in various power states
system.mem_ctrls.bytes_read::cpu.inst           22720                       # Number of bytes read from this memory
system.mem_ctrls.bytes_read::cpu.data         1244096                       # Number of bytes read from this memory
system.mem_ctrls.bytes_read::total            1266816                       # Number of bytes read from this memory
system.mem_ctrls.bytes_inst_read::cpu.inst        22720                       # Number of instructions bytes read from this memory
system.mem_ctrls.bytes_inst_read::total         22720                       # Number of instructions bytes read from this memory
system.mem_ctrls.bytes_written::writebacks      1036992                       # Number of bytes written to this memory
system.mem_ctrls.bytes_written::total         1036992                       # Number of bytes written to this memory
system.mem_ctrls.num_reads::cpu.inst              355                       # Number of read requests responded to by this memory
system.mem_ctrls.num_reads::cpu.data            19439                       # Number of read requests responded to by this memory
system.mem_ctrls.num_reads::total               19794                       # Number of read requests responded to by this memory
system.mem_ctrls.num_writes::writebacks         16203                       # Number of write requests responded to by this memory
system.mem_ctrls.num_writes::total              16203                       # Number of write requests responded to by this memory
system.mem_ctrls.bw_read::cpu.inst             241967                       # Total read bandwidth from this memory (bytes/s)
system.mem_ctrls.bw_read::cpu.data           13249570                       # Total read bandwidth from this memory (bytes/s)
system.mem_ctrls.bw_read::total              13491537                       # Total read bandwidth from this memory (bytes/s)
system.mem_ctrls.bw_inst_read::cpu.inst        241967                       # Instruction read bandwidth from this memory (bytes/s)
system.mem_ctrls.bw_inst_read::total           241967                       # Instruction read bandwidth from this memory (bytes/s)
system.mem_ctrls.bw_write::writebacks        11043921                       # Write bandwidth from this memory (bytes/s)
system.mem_ctrls.bw_write::total             11043921                       # Write bandwidth from this memory (bytes/s)
system.mem_ctrls.bw_total::writebacks        11043921                       # Total bandwidth to/from this memory (bytes/s)
system.mem_ctrls.bw_total::cpu.inst            241967                       # Total bandwidth to/from this memory (bytes/s)
system.mem_ctrls.bw_total::cpu.data          13249570                       # Total bandwidth to/from this memory (bytes/s)
system.mem_ctrls.bw_total::total             24535457                       # Total bandwidth to/from this memory (bytes/s)
system.pwrStateResidencyTicks::UNDEFINED  93897088500                       # Cumulative time (in ticks) in various power states
system.cpu_voltage_domain.voltage                   1                       # Voltage in Volts
system.cpu_clk_domain.clock                       500                       # Clock period in ticks
system.cpu.dtb.walker.pwrStateResidencyTicks::UNDEFINED  93897088500                       # Cumulative time (in ticks) in various power states
system.cpu.dtb.rdAccesses                    20877742                       # TLB accesses on read requests
system.cpu.dtb.wrAccesses                     5816533                       # TLB accesses on write requests
system.cpu.dtb.rdMisses                           166                       # TLB misses on read requests
system.cpu.dtb.wrMisses                           106                       # TLB misses on write requests
system.cpu.apic_clk_domain.clock                 8000                       # Clock period in ticks
system.cpu.interrupts.pwrStateResidencyTicks::UNDEFINED  93897088500                       # Cumulative time (in ticks) in various power states
system.cpu.itb.walker.pwrStateResidencyTicks::UNDEFINED  93897088500                       # Cumulative time (in ticks) in various power states
system.cpu.itb.rdAccesses                           0                       # TLB accesses on read requests
system.cpu.itb.wrAccesses                    59916890                       # TLB accesses on write requests
system.cpu.itb.rdMisses                             0                       # TLB misses on read requests
system.cpu.itb.wrMisses                            36                       # TLB misses on write requests
system.cpu.workload.numSyscalls                     9                       # Number of system calls
system.cpu.pwrStateResidencyTicks::ON     93897088500                       # Cumulative time (in ticks) in various power states
system.cpu.numCycles                        187794177                       # number of cpu cycles simulated
system.cpu.numWorkItemsStarted                      0                       # number of work items this cpu started
system.cpu.numWorkItemsCompleted                    0                       # number of work items this cpu completed
system.cpu.committedInsts                    44589703                       # Number of instructions committed
system.cpu.committedOps                      73417842                       # Number of ops (including micro ops) committed
system.cpu.num_int_alu_accesses              72895918                       # Number of integer alu accesses
system.cpu.num_fp_alu_accesses                   1951                       # Number of float alu accesses
system.cpu.num_vec_alu_accesses                     0                       # Number of vector alu accesses
system.cpu.num_func_calls                      944900                       # number of times a function call or return occured
system.cpu.num_conditional_control_insts      4232452                       # number of instructions that are conditional controls
system.cpu.num_int_insts                     72895918                       # number of integer instructions
system.cpu.num_fp_insts                          1951                       # number of float instructions
system.cpu.num_vec_insts                            0                       # number of vector instructions
system.cpu.num_int_register_reads           163691559                       # number of times the integer registers were read
system.cpu.num_int_register_writes           63686401                       # number of times the integer registers were written
system.cpu.num_fp_register_reads                 3771                       # number of times the floating registers were read
system.cpu.num_fp_register_writes                1484                       # number of times the floating registers were written
system.cpu.num_vec_register_reads                   0                       # number of times the vector registers were read
system.cpu.num_vec_register_writes                  0                       # number of times the vector registers were written
system.cpu.num_cc_register_reads             27636615                       # number of times the CC registers were read
system.cpu.num_cc_register_writes            24933069                       # number of times the CC registers were written
system.cpu.num_mem_refs                      26694269                       # number of memory refs
system.cpu.num_load_insts                    20877737                       # Number of load instructions
system.cpu.num_store_insts                    5816532                       # Number of store instructions
system.cpu.num_idle_cycles                          0                       # Number of idle cycles
system.cpu.num_busy_cycles                  187794177                       # Number of busy cycles
system.cpu.not_idle_fraction                        1                       # Percentage of non-idle cycles
system.cpu.idle_fraction                            0                       # Percentage of idle cycles
system.cpu.Branches                           5574736                       # Number of branches fetched
system.cpu.op_class::No_OpClass                175846      0.24%      0.24% # Class of executed instruction
system.cpu.op_class::IntAlu                  45543769     62.03%     62.27% # Class of executed instruction
system.cpu.op_class::IntMult                        4      0.00%     62.27% # Class of executed instruction
system.cpu.op_class::IntDiv                   1002994      1.37%     63.64% # Class of executed instruction
system.cpu.op_class::FloatAdd                      10      0.00%     63.64% # Class of executed instruction
system.cpu.op_class::FloatCmp                       0      0.00%     63.64% # Class of executed instruction
system.cpu.op_class::FloatCvt                       0      0.00%     63.64% # Class of executed instruction
system.cpu.op_class::FloatMult                      0      0.00%     63.64% # Class of executed instruction
system.cpu.op_class::FloatMultAcc                   0      0.00%     63.64% # Class of executed instruction
system.cpu.op_class::FloatDiv                       0      0.00%     63.64% # Class of executed instruction
system.cpu.op_class::FloatMisc                      0      0.00%     63.64% # Class of executed instruction
system.cpu.op_class::FloatSqrt                      0      0.00%     63.64% # Class of executed instruction
system.cpu.op_class::SimdAdd                      374      0.00%     63.64% # Class of executed instruction
system.cpu.op_class::SimdAddAcc                     0      0.00%     63.64% # Class of executed instruction
system.cpu.op_class::SimdAlu                       68      0.00%     63.64% # Class of executed instruction
system.cpu.op_class::SimdCmp                        0      0.00%     63.64% # Class of executed instruction
system.cpu.op_class::SimdCvt                      108      0.00%     63.64% # Class of executed instruction
system.cpu.op_class::SimdMisc                     214      0.00%     63.64% # Class of executed instruction
system.cpu.op_class::SimdMult                       0      0.00%     63.64% # Class of executed instruction
system.cpu.op_class::SimdMultAcc                    0      0.00%     63.64% # Class of executed instruction
system.cpu.op_class::SimdShift                    186      0.00%     63.64% # Class of executed instruction
system.cpu.op_class::SimdShiftAcc                   0      0.00%     63.64% # Class of executed instruction
system.cpu.op_class::SimdSqrt                       0      0.00%     63.64% # Class of executed instruction
system.cpu.op_class::SimdFloatAdd                   0      0.00%     63.64% # Class of executed instruction
system.cpu.op_class::SimdFloatAlu                   0      0.00%     63.64% # Class of executed instruction
system.cpu.op_class::SimdFloatCmp                   0      0.00%     63.64% # Class of executed instruction
system.cpu.op_class::SimdFloatCvt                   0      0.00%     63.64% # Class of executed instruction
system.cpu.op_class::SimdFloatDiv                   0      0.00%     63.64% # Class of executed instruction
system.cpu.op_class::SimdFloatMisc                  0      0.00%     63.64% # Class of executed instruction
system.cpu.op_class::SimdFloatMult                  0      0.00%     63.64% # Class of executed instruction
system.cpu.op_class::SimdFloatMultAcc               0      0.00%     63.64% # Class of executed instruction
system.cpu.op_class::SimdFloatSqrt                  0      0.00%     63.64% # Class of executed instruction
system.cpu.op_class::MemRead                 20877677     28.44%     92.08% # Class of executed instruction
system.cpu.op_class::MemWrite                 5816113      7.92%    100.00% # Class of executed instruction
system.cpu.op_class::FloatMemRead                  60      0.00%    100.00% # Class of executed instruction
system.cpu.op_class::FloatMemWrite                419      0.00%    100.00% # Class of executed instruction
system.cpu.op_class::IprAccess                      0      0.00%    100.00% # Class of executed instruction
system.cpu.op_class::InstPrefetch                   0      0.00%    100.00% # Class of executed instruction
system.cpu.op_class::total                   73417842                       # Class of executed instruction
system.cpu.dcache.tags.pwrStateResidencyTicks::UNDEFINED  93897088500                       # Cumulative time (in ticks) in various power states
system.cpu.dcache.tags.tagsinuse           510.067880                       # Cycle average of tags in use
system.cpu.dcache.tags.total_refs            26694275                       # Total number of references to valid blocks.
system.cpu.dcache.tags.sampled_refs             45404                       # Sample count of references to valid blocks.
system.cpu.dcache.tags.avg_refs            587.927826                       # Average number of references to valid blocks.
system.cpu.dcache.tags.warmup_cycle            766500                       # Cycle when the warmup percentage was hit.
system.cpu.dcache.tags.occ_blocks::cpu.data   510.067880                       # Average occupied blocks per requestor
system.cpu.dcache.tags.occ_percent::cpu.data     0.996226                       # Average percentage of cache occupancy
system.cpu.dcache.tags.occ_percent::total     0.996226                       # Average percentage of cache occupancy
system.cpu.dcache.tags.occ_task_id_blocks::1024          512                       # Occupied blocks per task id
system.cpu.dcache.tags.age_task_id_blocks_1024::0           15                       # Occupied blocks per task id
system.cpu.dcache.tags.age_task_id_blocks_1024::1           12                       # Occupied blocks per task id
system.cpu.dcache.tags.age_task_id_blocks_1024::2           34                       # Occupied blocks per task id
system.cpu.dcache.tags.age_task_id_blocks_1024::3          450                       # Occupied blocks per task id
system.cpu.dcache.tags.age_task_id_blocks_1024::4            1                       # Occupied blocks per task id
system.cpu.dcache.tags.occ_task_id_percent::1024            1                       # Percentage of cache occupancy per task id
system.cpu.dcache.tags.tag_accesses          53433954                       # Number of tag accesses
system.cpu.dcache.tags.data_accesses         53433954                       # Number of data accesses
system.cpu.dcache.pwrStateResidencyTicks::UNDEFINED  93897088500                       # Cumulative time (in ticks) in various power states
system.cpu.dcache.ReadReq_hits::cpu.data     20839028                       # number of ReadReq hits
system.cpu.dcache.ReadReq_hits::total        20839028                       # number of ReadReq hits
system.cpu.dcache.WriteReq_hits::cpu.data      5806312                       # number of WriteReq hits
system.cpu.dcache.WriteReq_hits::total        5806312                       # number of WriteReq hits
system.cpu.dcache.demand_hits::cpu.data      26645340                       # number of demand (read+write) hits
system.cpu.dcache.demand_hits::total         26645340                       # number of demand (read+write) hits
system.cpu.dcache.overall_hits::cpu.data     26645340                       # number of overall hits
system.cpu.dcache.overall_hits::total        26645340                       # number of overall hits
system.cpu.dcache.ReadReq_misses::cpu.data        38714                       # number of ReadReq misses
system.cpu.dcache.ReadReq_misses::total         38714                       # number of ReadReq misses
system.cpu.dcache.WriteReq_misses::cpu.data        10221                       # number of WriteReq misses
system.cpu.dcache.WriteReq_misses::total        10221                       # number of WriteReq misses
system.cpu.dcache.demand_misses::cpu.data        48935                       # number of demand (read+write) misses
system.cpu.dcache.demand_misses::total          48935                       # number of demand (read+write) misses
system.cpu.dcache.overall_misses::cpu.data        48935                       # number of overall misses
system.cpu.dcache.overall_misses::total         48935                       # number of overall misses
system.cpu.dcache.ReadReq_miss_latency::cpu.data   5777361500                       # number of ReadReq miss cycles
system.cpu.dcache.ReadReq_miss_latency::total   5777361500                       # number of ReadReq miss cycles
system.cpu.dcache.WriteReq_miss_latency::cpu.data   1488248500                       # number of WriteReq miss cycles
system.cpu.dcache.WriteReq_miss_latency::total   1488248500                       # number of WriteReq miss cycles
system.cpu.dcache.demand_miss_latency::cpu.data   7265610000                       # number of demand (read+write) miss cycles
system.cpu.dcache.demand_miss_latency::total   7265610000                       # number of demand (read+write) miss cycles
system.cpu.dcache.overall_miss_latency::cpu.data   7265610000                       # number of overall miss cycles
system.cpu.dcache.overall_miss_latency::total   7265610000                       # number of overall miss cycles
system.cpu.dcache.ReadReq_accesses::cpu.data     20877742                       # number of ReadReq accesses(hits+misses)
system.cpu.dcache.ReadReq_accesses::total     20877742                       # number of ReadReq accesses(hits+misses)
system.cpu.dcache.WriteReq_accesses::cpu.data      5816533                       # number of WriteReq accesses(hits+misses)
system.cpu.dcache.WriteReq_accesses::total      5816533                       # number of WriteReq accesses(hits+misses)
system.cpu.dcache.demand_accesses::cpu.data     26694275                       # number of demand (read+write) accesses
system.cpu.dcache.demand_accesses::total     26694275                       # number of demand (read+write) accesses
system.cpu.dcache.overall_accesses::cpu.data     26694275                       # number of overall (read+write) accesses
system.cpu.dcache.overall_accesses::total     26694275                       # number of overall (read+write) accesses
system.cpu.dcache.ReadReq_miss_rate::cpu.data     0.001854                       # miss rate for ReadReq accesses
system.cpu.dcache.ReadReq_miss_rate::total     0.001854                       # miss rate for ReadReq accesses
system.cpu.dcache.WriteReq_miss_rate::cpu.data     0.001757                       # miss rate for WriteReq accesses
system.cpu.dcache.WriteReq_miss_rate::total     0.001757                       # miss rate for WriteReq accesses
system.cpu.dcache.demand_miss_rate::cpu.data     0.001833                       # miss rate for demand accesses
system.cpu.dcache.demand_miss_rate::total     0.001833                       # miss rate for demand accesses
system.cpu.dcache.overall_miss_rate::cpu.data     0.001833                       # miss rate for overall accesses
system.cpu.dcache.overall_miss_rate::total     0.001833                       # miss rate for overall accesses
system.cpu.dcache.ReadReq_avg_miss_latency::cpu.data 149231.841194                       # average ReadReq miss latency
system.cpu.dcache.ReadReq_avg_miss_latency::total 149231.841194                       # average ReadReq miss latency
system.cpu.dcache.WriteReq_avg_miss_latency::cpu.data 145606.936699                       # average WriteReq miss latency
system.cpu.dcache.WriteReq_avg_miss_latency::total 145606.936699                       # average WriteReq miss latency
system.cpu.dcache.demand_avg_miss_latency::cpu.data 148474.711352                       # average overall miss latency
system.cpu.dcache.demand_avg_miss_latency::total 148474.711352                       # average overall miss latency
system.cpu.dcache.overall_avg_miss_latency::cpu.data 148474.711352                       # average overall miss latency
system.cpu.dcache.overall_avg_miss_latency::total 148474.711352                       # average overall miss latency
system.cpu.dcache.blocked_cycles::no_mshrs            0                       # number of cycles access was blocked
system.cpu.dcache.blocked_cycles::no_targets            0                       # number of cycles access was blocked
system.cpu.dcache.blocked::no_mshrs                 0                       # number of cycles access was blocked
system.cpu.dcache.blocked::no_targets               0                       # number of cycles access was blocked
system.cpu.dcache.avg_blocked_cycles::no_mshrs          nan                       # average number of cycles each access was blocked
system.cpu.dcache.avg_blocked_cycles::no_targets          nan                       # average number of cycles each access was blocked
system.cpu.dcache.writebacks::writebacks        43369                       # number of writebacks
system.cpu.dcache.writebacks::total             43369                       # number of writebacks
system.cpu.dcache.ReadReq_mshr_misses::cpu.data        38714                       # number of ReadReq MSHR misses
system.cpu.dcache.ReadReq_mshr_misses::total        38714                       # number of ReadReq MSHR misses
system.cpu.dcache.WriteReq_mshr_misses::cpu.data        10221                       # number of WriteReq MSHR misses
system.cpu.dcache.WriteReq_mshr_misses::total        10221                       # number of WriteReq MSHR misses
system.cpu.dcache.demand_mshr_misses::cpu.data        48935                       # number of demand (read+write) MSHR misses
system.cpu.dcache.demand_mshr_misses::total        48935                       # number of demand (read+write) MSHR misses
system.cpu.dcache.overall_mshr_misses::cpu.data        48935                       # number of overall MSHR misses
system.cpu.dcache.overall_mshr_misses::total        48935                       # number of overall MSHR misses
system.cpu.dcache.ReadReq_mshr_miss_latency::cpu.data   5738647500                       # number of ReadReq MSHR miss cycles
system.cpu.dcache.ReadReq_mshr_miss_latency::total   5738647500                       # number of ReadReq MSHR miss cycles
system.cpu.dcache.WriteReq_mshr_miss_latency::cpu.data   1478027500                       # number of WriteReq MSHR miss cycles
system.cpu.dcache.WriteReq_mshr_miss_latency::total   1478027500                       # number of WriteReq MSHR miss cycles
system.cpu.dcache.demand_mshr_miss_latency::cpu.data   7216675000                       # number of demand (read+write) MSHR miss cycles
system.cpu.dcache.demand_mshr_miss_latency::total   7216675000                       # number of demand (read+write) MSHR miss cycles
system.cpu.dcache.overall_mshr_miss_latency::cpu.data   7216675000                       # number of overall MSHR miss cycles
system.cpu.dcache.overall_mshr_miss_latency::total   7216675000                       # number of overall MSHR miss cycles
system.cpu.dcache.ReadReq_mshr_miss_rate::cpu.data     0.001854                       # mshr miss rate for ReadReq accesses
system.cpu.dcache.ReadReq_mshr_miss_rate::total     0.001854                       # mshr miss rate for ReadReq accesses
system.cpu.dcache.WriteReq_mshr_miss_rate::cpu.data     0.001757                       # mshr miss rate for WriteReq accesses
system.cpu.dcache.WriteReq_mshr_miss_rate::total     0.001757                       # mshr miss rate for WriteReq accesses
system.cpu.dcache.demand_mshr_miss_rate::cpu.data     0.001833                       # mshr miss rate for demand accesses
system.cpu.dcache.demand_mshr_miss_rate::total     0.001833                       # mshr miss rate for demand accesses
system.cpu.dcache.overall_mshr_miss_rate::cpu.data     0.001833                       # mshr miss rate for overall accesses
system.cpu.dcache.overall_mshr_miss_rate::total     0.001833                       # mshr miss rate for overall accesses
system.cpu.dcache.ReadReq_avg_mshr_miss_latency::cpu.data 148231.841194                       # average ReadReq mshr miss latency
system.cpu.dcache.ReadReq_avg_mshr_miss_latency::total 148231.841194                       # average ReadReq mshr miss latency
system.cpu.dcache.WriteReq_avg_mshr_miss_latency::cpu.data 144606.936699                       # average WriteReq mshr miss latency
system.cpu.dcache.WriteReq_avg_mshr_miss_latency::total 144606.936699                       # average WriteReq mshr miss latency
system.cpu.dcache.demand_avg_mshr_miss_latency::cpu.data 147474.711352                       # average overall mshr miss latency
system.cpu.dcache.demand_avg_mshr_miss_latency::total 147474.711352                       # average overall mshr miss latency
system.cpu.dcache.overall_avg_mshr_miss_latency::cpu.data 147474.711352                       # average overall mshr miss latency
system.cpu.dcache.overall_avg_mshr_miss_latency::total 147474.711352                       # average overall mshr miss latency
system.cpu.dcache.replacements                  44892                       # number of replacements
system.cpu.dtb_walker_cache.tags.pwrStateResidencyTicks::UNDEFINED  93897088500                       # Cumulative time (in ticks) in various power states
system.cpu.dtb_walker_cache.tags.tagsinuse            0                       # Cycle average of tags in use
system.cpu.dtb_walker_cache.tags.total_refs            0                       # Total number of references to valid blocks.
system.cpu.dtb_walker_cache.tags.sampled_refs            0                       # Sample count of references to valid blocks.
system.cpu.dtb_walker_cache.tags.avg_refs          nan                       # Average number of references to valid blocks.
system.cpu.dtb_walker_cache.tags.warmup_cycle            0                       # Cycle when the warmup percentage was hit.
system.cpu.dtb_walker_cache.tags.tag_accesses            0                       # Number of tag accesses
system.cpu.dtb_walker_cache.tags.data_accesses            0                       # Number of data accesses
system.cpu.dtb_walker_cache.pwrStateResidencyTicks::UNDEFINED  93897088500                       # Cumulative time (in ticks) in various power states
system.cpu.dtb_walker_cache.blocked_cycles::no_mshrs            0                       # number of cycles access was blocked
system.cpu.dtb_walker_cache.blocked_cycles::no_targets            0                       # number of cycles access was blocked
system.cpu.dtb_walker_cache.blocked::no_mshrs            0                       # number of cycles access was blocked
system.cpu.dtb_walker_cache.blocked::no_targets            0                       # number of cycles access was blocked
system.cpu.dtb_walker_cache.avg_blocked_cycles::no_mshrs          nan                       # average number of cycles each access was blocked
system.cpu.dtb_walker_cache.avg_blocked_cycles::no_targets          nan                       # average number of cycles each access was blocked
system.cpu.dtb_walker_cache.replacements            0                       # number of replacements
system.cpu.icache.tags.pwrStateResidencyTicks::UNDEFINED  93897088500                       # Cumulative time (in ticks) in various power states
system.cpu.icache.tags.tagsinuse           280.275434                       # Cycle average of tags in use
system.cpu.icache.tags.total_refs            59916890                       # Total number of references to valid blocks.
system.cpu.icache.tags.sampled_refs               355                       # Sample count of references to valid blocks.
system.cpu.icache.tags.avg_refs          168779.971831                       # Average number of references to valid blocks.
system.cpu.icache.tags.warmup_cycle            445500                       # Cycle when the warmup percentage was hit.
system.cpu.icache.tags.occ_blocks::cpu.inst   280.275434                       # Average occupied blocks per requestor
system.cpu.icache.tags.occ_percent::cpu.inst     0.547413                       # Average percentage of cache occupancy
system.cpu.icache.tags.occ_percent::total     0.547413                       # Average percentage of cache occupancy
system.cpu.icache.tags.occ_task_id_blocks::1024          309                       # Occupied blocks per task id
system.cpu.icache.tags.age_task_id_blocks_1024::0           27                       # Occupied blocks per task id
system.cpu.icache.tags.age_task_id_blocks_1024::1           11                       # Occupied blocks per task id
system.cpu.icache.tags.age_task_id_blocks_1024::4          271                       # Occupied blocks per task id
system.cpu.icache.tags.occ_task_id_percent::1024     0.603516                       # Percentage of cache occupancy per task id
system.cpu.icache.tags.tag_accesses         119834135                       # Number of tag accesses
system.cpu.icache.tags.data_accesses        119834135                       # Number of data accesses
system.cpu.icache.pwrStateResidencyTicks::UNDEFINED  93897088500                       # Cumulative time (in ticks) in various power states
system.cpu.icache.ReadReq_hits::cpu.inst     59916535                       # number of ReadReq hits
system.cpu.icache.ReadReq_hits::total        59916535                       # number of ReadReq hits
system.cpu.icache.demand_hits::cpu.inst      59916535                       # number of demand (read+write) hits
system.cpu.icache.demand_hits::total         59916535                       # number of demand (read+write) hits
system.cpu.icache.overall_hits::cpu.inst     59916535                       # number of overall hits
system.cpu.icache.overall_hits::total        59916535                       # number of overall hits
system.cpu.icache.ReadReq_misses::cpu.inst          355                       # number of ReadReq misses
system.cpu.icache.ReadReq_misses::total           355                       # number of ReadReq misses
system.cpu.icache.demand_misses::cpu.inst          355                       # number of demand (read+write) misses
system.cpu.icache.demand_misses::total            355                       # number of demand (read+write) misses
system.cpu.icache.overall_misses::cpu.inst          355                       # number of overall misses
system.cpu.icache.overall_misses::total           355                       # number of overall misses
system.cpu.icache.ReadReq_miss_latency::cpu.inst     69609000                       # number of ReadReq miss cycles
system.cpu.icache.ReadReq_miss_latency::total     69609000                       # number of ReadReq miss cycles
system.cpu.icache.demand_miss_latency::cpu.inst     69609000                       # number of demand (read+write) miss cycles
system.cpu.icache.demand_miss_latency::total     69609000                       # number of demand (read+write) miss cycles
system.cpu.icache.overall_miss_latency::cpu.inst     69609000                       # number of overall miss cycles
system.cpu.icache.overall_miss_latency::total     69609000                       # number of overall miss cycles
system.cpu.icache.ReadReq_accesses::cpu.inst     59916890                       # number of ReadReq accesses(hits+misses)
system.cpu.icache.ReadReq_accesses::total     59916890                       # number of ReadReq accesses(hits+misses)
system.cpu.icache.demand_accesses::cpu.inst     59916890                       # number of demand (read+write) accesses
system.cpu.icache.demand_accesses::total     59916890                       # number of demand (read+write) accesses
system.cpu.icache.overall_accesses::cpu.inst     59916890                       # number of overall (read+write) accesses
system.cpu.icache.overall_accesses::total     59916890                       # number of overall (read+write) accesses
system.cpu.icache.ReadReq_miss_rate::cpu.inst     0.000006                       # miss rate for ReadReq accesses
system.cpu.icache.ReadReq_miss_rate::total     0.000006                       # miss rate for ReadReq accesses
system.cpu.icache.demand_miss_rate::cpu.inst     0.000006                       # miss rate for demand accesses
system.cpu.icache.demand_miss_rate::total     0.000006                       # miss rate for demand accesses
system.cpu.icache.overall_miss_rate::cpu.inst     0.000006                       # miss rate for overall accesses
system.cpu.icache.overall_miss_rate::total     0.000006                       # miss rate for overall accesses
system.cpu.icache.ReadReq_avg_miss_latency::cpu.inst 196081.690141                       # average ReadReq miss latency
system.cpu.icache.ReadReq_avg_miss_latency::total 196081.690141                       # average ReadReq miss latency
system.cpu.icache.demand_avg_miss_latency::cpu.inst 196081.690141                       # average overall miss latency
system.cpu.icache.demand_avg_miss_latency::total 196081.690141                       # average overall miss latency
system.cpu.icache.overall_avg_miss_latency::cpu.inst 196081.690141                       # average overall miss latency
system.cpu.icache.overall_avg_miss_latency::total 196081.690141                       # average overall miss latency
system.cpu.icache.blocked_cycles::no_mshrs            0                       # number of cycles access was blocked
system.cpu.icache.blocked_cycles::no_targets            0                       # number of cycles access was blocked
system.cpu.icache.blocked::no_mshrs                 0                       # number of cycles access was blocked
system.cpu.icache.blocked::no_targets               0                       # number of cycles access was blocked
system.cpu.icache.avg_blocked_cycles::no_mshrs          nan                       # average number of cycles each access was blocked
system.cpu.icache.avg_blocked_cycles::no_targets          nan                       # average number of cycles each access was blocked
system.cpu.icache.writebacks::writebacks           46                       # number of writebacks
system.cpu.icache.writebacks::total                46                       # number of writebacks
system.cpu.icache.ReadReq_mshr_misses::cpu.inst          355                       # number of ReadReq MSHR misses
system.cpu.icache.ReadReq_mshr_misses::total          355                       # number of ReadReq MSHR misses
system.cpu.icache.demand_mshr_misses::cpu.inst          355                       # number of demand (read+write) MSHR misses
system.cpu.icache.demand_mshr_misses::total          355                       # number of demand (read+write) MSHR misses
system.cpu.icache.overall_mshr_misses::cpu.inst          355                       # number of overall MSHR misses
system.cpu.icache.overall_mshr_misses::total          355                       # number of overall MSHR misses
system.cpu.icache.ReadReq_mshr_miss_latency::cpu.inst     69254000                       # number of ReadReq MSHR miss cycles
system.cpu.icache.ReadReq_mshr_miss_latency::total     69254000                       # number of ReadReq MSHR miss cycles
system.cpu.icache.demand_mshr_miss_latency::cpu.inst     69254000                       # number of demand (read+write) MSHR miss cycles
system.cpu.icache.demand_mshr_miss_latency::total     69254000                       # number of demand (read+write) MSHR miss cycles
system.cpu.icache.overall_mshr_miss_latency::cpu.inst     69254000                       # number of overall MSHR miss cycles
system.cpu.icache.overall_mshr_miss_latency::total     69254000                       # number of overall MSHR miss cycles
system.cpu.icache.ReadReq_mshr_miss_rate::cpu.inst     0.000006                       # mshr miss rate for ReadReq accesses
system.cpu.icache.ReadReq_mshr_miss_rate::total     0.000006                       # mshr miss rate for ReadReq accesses
system.cpu.icache.demand_mshr_miss_rate::cpu.inst     0.000006                       # mshr miss rate for demand accesses
system.cpu.icache.demand_mshr_miss_rate::total     0.000006                       # mshr miss rate for demand accesses
system.cpu.icache.overall_mshr_miss_rate::cpu.inst     0.000006                       # mshr miss rate for overall accesses
system.cpu.icache.overall_mshr_miss_rate::total     0.000006                       # mshr miss rate for overall accesses
system.cpu.icache.ReadReq_avg_mshr_miss_latency::cpu.inst 195081.690141                       # average ReadReq mshr miss latency
system.cpu.icache.ReadReq_avg_mshr_miss_latency::total 195081.690141                       # average ReadReq mshr miss latency
system.cpu.icache.demand_avg_mshr_miss_latency::cpu.inst 195081.690141                       # average overall mshr miss latency
system.cpu.icache.demand_avg_mshr_miss_latency::total 195081.690141                       # average overall mshr miss latency
system.cpu.icache.overall_avg_mshr_miss_latency::cpu.inst 195081.690141                       # average overall mshr miss latency
system.cpu.icache.overall_avg_mshr_miss_latency::total 195081.690141                       # average overall mshr miss latency
system.cpu.icache.replacements                     46                       # number of replacements
system.cpu.itb_walker_cache.tags.pwrStateResidencyTicks::UNDEFINED  93897088500                       # Cumulative time (in ticks) in various power states
system.cpu.itb_walker_cache.tags.tagsinuse            0                       # Cycle average of tags in use
system.cpu.itb_walker_cache.tags.total_refs            0                       # Total number of references to valid blocks.
system.cpu.itb_walker_cache.tags.sampled_refs            0                       # Sample count of references to valid blocks.
system.cpu.itb_walker_cache.tags.avg_refs          nan                       # Average number of references to valid blocks.
system.cpu.itb_walker_cache.tags.warmup_cycle            0                       # Cycle when the warmup percentage was hit.
system.cpu.itb_walker_cache.tags.tag_accesses            0                       # Number of tag accesses
system.cpu.itb_walker_cache.tags.data_accesses            0                       # Number of data accesses
system.cpu.itb_walker_cache.pwrStateResidencyTicks::UNDEFINED  93897088500                       # Cumulative time (in ticks) in various power states
system.cpu.itb_walker_cache.blocked_cycles::no_mshrs            0                       # number of cycles access was blocked
system.cpu.itb_walker_cache.blocked_cycles::no_targets            0                       # number of cycles access was blocked
system.cpu.itb_walker_cache.blocked::no_mshrs            0                       # number of cycles access was blocked
system.cpu.itb_walker_cache.blocked::no_targets            0                       # number of cycles access was blocked
system.cpu.itb_walker_cache.avg_blocked_cycles::no_mshrs          nan                       # average number of cycles each access was blocked
system.cpu.itb_walker_cache.avg_blocked_cycles::no_targets          nan                       # average number of cycles each access was blocked
system.cpu.itb_walker_cache.replacements            0                       # number of replacements
system.l2.tags.pwrStateResidencyTicks::UNDEFINED  93897088500                       # Cumulative time (in ticks) in various power states
system.l2.tags.tagsinuse                  2019.793288                       # Cycle average of tags in use
system.l2.tags.total_refs                       94228                       # Total number of references to valid blocks.
system.l2.tags.sampled_refs                     24189                       # Sample count of references to valid blocks.
system.l2.tags.avg_refs                      3.895490                       # Average number of references to valid blocks.
system.l2.tags.warmup_cycle                    435000                       # Cycle when the warmup percentage was hit.
system.l2.tags.occ_blocks::writebacks        1.510063                       # Average occupied blocks per requestor
system.l2.tags.occ_blocks::cpu.inst         10.900353                       # Average occupied blocks per requestor
system.l2.tags.occ_blocks::cpu.data       2007.382872                       # Average occupied blocks per requestor
system.l2.tags.occ_percent::writebacks       0.000737                       # Average percentage of cache occupancy
system.l2.tags.occ_percent::cpu.inst         0.005322                       # Average percentage of cache occupancy
system.l2.tags.occ_percent::cpu.data         0.980167                       # Average percentage of cache occupancy
system.l2.tags.occ_percent::total            0.986227                       # Average percentage of cache occupancy
system.l2.tags.occ_task_id_blocks::1024          2048                       # Occupied blocks per task id
system.l2.tags.age_task_id_blocks_1024::0           51                       # Occupied blocks per task id
system.l2.tags.age_task_id_blocks_1024::1           23                       # Occupied blocks per task id
system.l2.tags.age_task_id_blocks_1024::2           33                       # Occupied blocks per task id
system.l2.tags.age_task_id_blocks_1024::3           58                       # Occupied blocks per task id
system.l2.tags.age_task_id_blocks_1024::4         1883                       # Occupied blocks per task id
system.l2.tags.occ_task_id_percent::1024            1                       # Percentage of cache occupancy per task id
system.l2.tags.tag_accesses                    778013                       # Number of tag accesses
system.l2.tags.data_accesses                   778013                       # Number of data accesses
system.l2.pwrStateResidencyTicks::UNDEFINED  93897088500                       # Cumulative time (in ticks) in various power states
system.l2.WritebackDirty_hits::writebacks        43369                       # number of WritebackDirty hits
system.l2.WritebackDirty_hits::total            43369                       # number of WritebackDirty hits
system.l2.WritebackClean_hits::writebacks           46                       # number of WritebackClean hits
system.l2.WritebackClean_hits::total               46                       # number of WritebackClean hits
system.l2.UpgradeReq_hits::cpu.data              3531                       # number of UpgradeReq hits
system.l2.UpgradeReq_hits::total                 3531                       # number of UpgradeReq hits
system.l2.ReadExReq_hits::cpu.data                249                       # number of ReadExReq hits
system.l2.ReadExReq_hits::total                   249                       # number of ReadExReq hits
system.l2.ReadSharedReq_hits::cpu.data          21345                       # number of ReadSharedReq hits
system.l2.ReadSharedReq_hits::total             21345                       # number of ReadSharedReq hits
system.l2.demand_hits::cpu.data                 21594                       # number of demand (read+write) hits
system.l2.demand_hits::total                    21594                       # number of demand (read+write) hits
system.l2.overall_hits::cpu.data                21594                       # number of overall hits
system.l2.overall_hits::total                   21594                       # number of overall hits
system.l2.ReadExReq_misses::cpu.data             6441                       # number of ReadExReq misses
system.l2.ReadExReq_misses::total                6441                       # number of ReadExReq misses
system.l2.ReadCleanReq_misses::cpu.inst           355                       # number of ReadCleanReq misses
system.l2.ReadCleanReq_misses::total              355                       # number of ReadCleanReq misses
system.l2.ReadSharedReq_misses::cpu.data        17369                       # number of ReadSharedReq misses
system.l2.ReadSharedReq_misses::total           17369                       # number of ReadSharedReq misses
system.l2.demand_misses::cpu.inst                 355                       # number of demand (read+write) misses
system.l2.demand_misses::cpu.data               23810                       # number of demand (read+write) misses
system.l2.demand_misses::total                  24165                       # number of demand (read+write) misses
system.l2.overall_misses::cpu.inst                355                       # number of overall misses
system.l2.overall_misses::cpu.data              23810                       # number of overall misses
system.l2.overall_misses::total                 24165                       # number of overall misses
system.l2.ReadExReq_miss_latency::cpu.data   1423006000                       # number of ReadExReq miss cycles
system.l2.ReadExReq_miss_latency::total    1423006000                       # number of ReadExReq miss cycles
system.l2.ReadCleanReq_miss_latency::cpu.inst     68720000                       # number of ReadCleanReq miss cycles
system.l2.ReadCleanReq_miss_latency::total     68720000                       # number of ReadCleanReq miss cycles
system.l2.ReadSharedReq_miss_latency::cpu.data   5456453500                       # number of ReadSharedReq miss cycles
system.l2.ReadSharedReq_miss_latency::total   5456453500                       # number of ReadSharedReq miss cycles
system.l2.demand_miss_latency::cpu.inst      68720000                       # number of demand (read+write) miss cycles
system.l2.demand_miss_latency::cpu.data    6879459500                       # number of demand (read+write) miss cycles
system.l2.demand_miss_latency::total       6948179500                       # number of demand (read+write) miss cycles
system.l2.overall_miss_latency::cpu.inst     68720000                       # number of overall miss cycles
system.l2.overall_miss_latency::cpu.data   6879459500                       # number of overall miss cycles
system.l2.overall_miss_latency::total      6948179500                       # number of overall miss cycles
system.l2.WritebackDirty_accesses::writebacks        43369                       # number of WritebackDirty accesses(hits+misses)
system.l2.WritebackDirty_accesses::total        43369                       # number of WritebackDirty accesses(hits+misses)
system.l2.WritebackClean_accesses::writebacks           46                       # number of WritebackClean accesses(hits+misses)
system.l2.WritebackClean_accesses::total           46                       # number of WritebackClean accesses(hits+misses)
system.l2.UpgradeReq_accesses::cpu.data          3531                       # number of UpgradeReq accesses(hits+misses)
system.l2.UpgradeReq_accesses::total             3531                       # number of UpgradeReq accesses(hits+misses)
system.l2.ReadExReq_accesses::cpu.data           6690                       # number of ReadExReq accesses(hits+misses)
system.l2.ReadExReq_accesses::total              6690                       # number of ReadExReq accesses(hits+misses)
system.l2.ReadCleanReq_accesses::cpu.inst          355                       # number of ReadCleanReq accesses(hits+misses)
system.l2.ReadCleanReq_accesses::total            355                       # number of ReadCleanReq accesses(hits+misses)
system.l2.ReadSharedReq_accesses::cpu.data        38714                       # number of ReadSharedReq accesses(hits+misses)
system.l2.ReadSharedReq_accesses::total         38714                       # number of ReadSharedReq accesses(hits+misses)
system.l2.demand_accesses::cpu.inst               355                       # number of demand (read+write) accesses
system.l2.demand_accesses::cpu.data             45404                       # number of demand (read+write) accesses
system.l2.demand_accesses::total                45759                       # number of demand (read+write) accesses
system.l2.overall_accesses::cpu.inst              355                       # number of overall (read+write) accesses
system.l2.overall_accesses::cpu.data            45404                       # number of overall (read+write) accesses
system.l2.overall_accesses::total               45759                       # number of overall (read+write) accesses
system.l2.ReadExReq_miss_rate::cpu.data      0.962780                       # miss rate for ReadExReq accesses
system.l2.ReadExReq_miss_rate::total         0.962780                       # miss rate for ReadExReq accesses
system.l2.ReadCleanReq_miss_rate::cpu.inst            1                       # miss rate for ReadCleanReq accesses
system.l2.ReadCleanReq_miss_rate::total             1                       # miss rate for ReadCleanReq accesses
system.l2.ReadSharedReq_miss_rate::cpu.data     0.448649                       # miss rate for ReadSharedReq accesses
system.l2.ReadSharedReq_miss_rate::total     0.448649                       # miss rate for ReadSharedReq accesses
system.l2.demand_miss_rate::cpu.inst                1                       # miss rate for demand accesses
system.l2.demand_miss_rate::cpu.data         0.524403                       # miss rate for demand accesses
system.l2.demand_miss_rate::total            0.528093                       # miss rate for demand accesses
system.l2.overall_miss_rate::cpu.inst               1                       # miss rate for overall accesses
system.l2.overall_miss_rate::cpu.data        0.524403                       # miss rate for overall accesses
system.l2.overall_miss_rate::total           0.528093                       # miss rate for overall accesses
system.l2.ReadExReq_avg_miss_latency::cpu.data 220929.358795                       # average ReadExReq miss latency
system.l2.ReadExReq_avg_miss_latency::total 220929.358795                       # average ReadExReq miss latency
system.l2.ReadCleanReq_avg_miss_latency::cpu.inst 193577.464789                       # average ReadCleanReq miss latency
system.l2.ReadCleanReq_avg_miss_latency::total 193577.464789                       # average ReadCleanReq miss latency
system.l2.ReadSharedReq_avg_miss_latency::cpu.data 314148.972307                       # average ReadSharedReq miss latency
system.l2.ReadSharedReq_avg_miss_latency::total 314148.972307                       # average ReadSharedReq miss latency
system.l2.demand_avg_miss_latency::cpu.inst 193577.464789                       # average overall miss latency
system.l2.demand_avg_miss_latency::cpu.data 288931.520370                       # average overall miss latency
system.l2.demand_avg_miss_latency::total 287530.705566                       # average overall miss latency
system.l2.overall_avg_miss_latency::cpu.inst 193577.464789                       # average overall miss latency
system.l2.overall_avg_miss_latency::cpu.data 288931.520370                       # average overall miss latency
system.l2.overall_avg_miss_latency::total 287530.705566                       # average overall miss latency
system.l2.blocked_cycles::no_mshrs                  0                       # number of cycles access was blocked
system.l2.blocked_cycles::no_targets                0                       # number of cycles access was blocked
system.l2.blocked::no_mshrs                         0                       # number of cycles access was blocked
system.l2.blocked::no_targets                       0                       # number of cycles access was blocked
system.l2.avg_blocked_cycles::no_mshrs            nan                       # average number of cycles each access was blocked
system.l2.avg_blocked_cycles::no_targets          nan                       # average number of cycles each access was blocked
system.l2.writebacks::writebacks                21478                       # number of writebacks
system.l2.writebacks::total                     21478                       # number of writebacks
system.l2.ReadExReq_mshr_misses::cpu.data         6441                       # number of ReadExReq MSHR misses
system.l2.ReadExReq_mshr_misses::total           6441                       # number of ReadExReq MSHR misses
system.l2.ReadCleanReq_mshr_misses::cpu.inst          355                       # number of ReadCleanReq MSHR misses
system.l2.ReadCleanReq_mshr_misses::total          355                       # number of ReadCleanReq MSHR misses
system.l2.ReadSharedReq_mshr_misses::cpu.data        17369                       # number of ReadSharedReq MSHR misses
system.l2.ReadSharedReq_mshr_misses::total        17369                       # number of ReadSharedReq MSHR misses
system.l2.demand_mshr_misses::cpu.inst            355                       # number of demand (read+write) MSHR misses
system.l2.demand_mshr_misses::cpu.data          23810                       # number of demand (read+write) MSHR misses
system.l2.demand_mshr_misses::total             24165                       # number of demand (read+write) MSHR misses
system.l2.overall_mshr_misses::cpu.inst           355                       # number of overall MSHR misses
system.l2.overall_mshr_misses::cpu.data         23810                       # number of overall MSHR misses
system.l2.overall_mshr_misses::total            24165                       # number of overall MSHR misses
system.l2.ReadExReq_mshr_miss_latency::cpu.data   1358596000                       # number of ReadExReq MSHR miss cycles
system.l2.ReadExReq_mshr_miss_latency::total   1358596000                       # number of ReadExReq MSHR miss cycles
system.l2.ReadCleanReq_mshr_miss_latency::cpu.inst     65170000                       # number of ReadCleanReq MSHR miss cycles
system.l2.ReadCleanReq_mshr_miss_latency::total     65170000                       # number of ReadCleanReq MSHR miss cycles
system.l2.ReadSharedReq_mshr_miss_latency::cpu.data   5282763500                       # number of ReadSharedReq MSHR miss cycles
system.l2.ReadSharedReq_mshr_miss_latency::total   5282763500                       # number of ReadSharedReq MSHR miss cycles
system.l2.demand_mshr_miss_latency::cpu.inst     65170000                       # number of demand (read+write) MSHR miss cycles
system.l2.demand_mshr_miss_latency::cpu.data   6641359500                       # number of demand (read+write) MSHR miss cycles
system.l2.demand_mshr_miss_latency::total   6706529500                       # number of demand (read+write) MSHR miss cycles
system.l2.overall_mshr_miss_latency::cpu.inst     65170000                       # number of overall MSHR miss cycles
system.l2.overall_mshr_miss_latency::cpu.data   6641359500                       # number of overall MSHR miss cycles
system.l2.overall_mshr_miss_latency::total   6706529500                       # number of overall MSHR miss cycles
system.l2.ReadExReq_mshr_miss_rate::cpu.data     0.962780                       # mshr miss rate for ReadExReq accesses
system.l2.ReadExReq_mshr_miss_rate::total     0.962780                       # mshr miss rate for ReadExReq accesses
system.l2.ReadCleanReq_mshr_miss_rate::cpu.inst            1                       # mshr miss rate for ReadCleanReq accesses
system.l2.ReadCleanReq_mshr_miss_rate::total            1                       # mshr miss rate for ReadCleanReq accesses
system.l2.ReadSharedReq_mshr_miss_rate::cpu.data     0.448649                       # mshr miss rate for ReadSharedReq accesses
system.l2.ReadSharedReq_mshr_miss_rate::total     0.448649                       # mshr miss rate for ReadSharedReq accesses
system.l2.demand_mshr_miss_rate::cpu.inst            1                       # mshr miss rate for demand accesses
system.l2.demand_mshr_miss_rate::cpu.data     0.524403                       # mshr miss rate for demand accesses
system.l2.demand_mshr_miss_rate::total       0.528093                       # mshr miss rate for demand accesses
system.l2.overall_mshr_miss_rate::cpu.inst            1                       # mshr miss rate for overall accesses
system.l2.overall_mshr_miss_rate::cpu.data     0.524403                       # mshr miss rate for overall accesses
system.l2.overall_mshr_miss_rate::total      0.528093                       # mshr miss rate for overall accesses
system.l2.ReadExReq_avg_mshr_miss_latency::cpu.data 210929.358795                       # average ReadExReq mshr miss latency
system.l2.ReadExReq_avg_mshr_miss_latency::total 210929.358795                       # average ReadExReq mshr miss latency
system.l2.ReadCleanReq_avg_mshr_miss_latency::cpu.inst 183577.464789                       # average ReadCleanReq mshr miss latency
system.l2.ReadCleanReq_avg_mshr_miss_latency::total 183577.464789                       # average ReadCleanReq mshr miss latency
system.l2.ReadSharedReq_avg_mshr_miss_latency::cpu.data 304148.972307                       # average ReadSharedReq mshr miss latency
system.l2.ReadSharedReq_avg_mshr_miss_latency::total 304148.972307                       # average ReadSharedReq mshr miss latency
system.l2.demand_avg_mshr_miss_latency::cpu.inst 183577.464789                       # average overall mshr miss latency
system.l2.demand_avg_mshr_miss_latency::cpu.data 278931.520370                       # average overall mshr miss latency
system.l2.demand_avg_mshr_miss_latency::total 277530.705566                       # average overall mshr miss latency
system.l2.overall_avg_mshr_miss_latency::cpu.inst 183577.464789                       # average overall mshr miss latency
system.l2.overall_avg_mshr_miss_latency::cpu.data 278931.520370                       # average overall mshr miss latency
system.l2.overall_avg_mshr_miss_latency::total 277530.705566                       # average overall mshr miss latency
system.l2.replacements                          22141                       # number of replacements
system.l3.tags.pwrStateResidencyTicks::UNDEFINED  93897088500                       # Cumulative time (in ticks) in various power states
system.l3.tags.tagsinuse                  2014.625681                       # Cycle average of tags in use
system.l3.tags.total_refs                       45701                       # Total number of references to valid blocks.
system.l3.tags.sampled_refs                     39184                       # Sample count of references to valid blocks.
system.l3.tags.avg_refs                      1.166318                       # Average number of references to valid blocks.
system.l3.tags.warmup_cycle                    418000                       # Cycle when the warmup percentage was hit.
system.l3.tags.occ_blocks::writebacks     1227.617604                       # Average occupied blocks per requestor
system.l3.tags.occ_blocks::cpu.inst          8.033799                       # Average occupied blocks per requestor
system.l3.tags.occ_blocks::cpu.data        778.974277                       # Average occupied blocks per requestor
system.l3.tags.occ_percent::writebacks       0.599423                       # Average percentage of cache occupancy
system.l3.tags.occ_percent::cpu.inst         0.003923                       # Average percentage of cache occupancy
system.l3.tags.occ_percent::cpu.data         0.380359                       # Average percentage of cache occupancy
system.l3.tags.occ_percent::total            0.983704                       # Average percentage of cache occupancy
system.l3.tags.occ_task_id_blocks::1024          2048                       # Occupied blocks per task id
system.l3.tags.age_task_id_blocks_1024::0           52                       # Occupied blocks per task id
system.l3.tags.age_task_id_blocks_1024::1           24                       # Occupied blocks per task id
system.l3.tags.age_task_id_blocks_1024::2           12                       # Occupied blocks per task id
system.l3.tags.age_task_id_blocks_1024::3           32                       # Occupied blocks per task id
system.l3.tags.age_task_id_blocks_1024::4         1928                       # Occupied blocks per task id
system.l3.tags.occ_task_id_percent::1024            1                       # Percentage of cache occupancy per task id
system.l3.tags.tag_accesses                    131206                       # Number of tag accesses
system.l3.tags.data_accesses                   131206                       # Number of data accesses
system.l3.pwrStateResidencyTicks::UNDEFINED  93897088500                       # Cumulative time (in ticks) in various power states
system.l3.WritebackDirty_hits::writebacks        21478                       # number of WritebackDirty hits
system.l3.WritebackDirty_hits::total            21478                       # number of WritebackDirty hits
system.l3.ReadExReq_hits::cpu.data                 36                       # number of ReadExReq hits
system.l3.ReadExReq_hits::total                    36                       # number of ReadExReq hits
system.l3.ReadSharedReq_hits::cpu.data           4335                       # number of ReadSharedReq hits
system.l3.ReadSharedReq_hits::total              4335                       # number of ReadSharedReq hits
system.l3.demand_hits::cpu.data                  4371                       # number of demand (read+write) hits
system.l3.demand_hits::total                     4371                       # number of demand (read+write) hits
system.l3.overall_hits::cpu.data                 4371                       # number of overall hits
system.l3.overall_hits::total                    4371                       # number of overall hits
system.l3.ReadExReq_misses::cpu.data             6405                       # number of ReadExReq misses
system.l3.ReadExReq_misses::total                6405                       # number of ReadExReq misses
system.l3.ReadSharedReq_misses::cpu.inst          355                       # number of ReadSharedReq misses
system.l3.ReadSharedReq_misses::cpu.data        13034                       # number of ReadSharedReq misses
system.l3.ReadSharedReq_misses::total           13389                       # number of ReadSharedReq misses
system.l3.demand_misses::cpu.inst                 355                       # number of demand (read+write) misses
system.l3.demand_misses::cpu.data               19439                       # number of demand (read+write) misses
system.l3.demand_misses::total                  19794                       # number of demand (read+write) misses
system.l3.overall_misses::cpu.inst                355                       # number of overall misses
system.l3.overall_misses::cpu.data              19439                       # number of overall misses
system.l3.overall_misses::total                 19794                       # number of overall misses
system.l3.ReadExReq_miss_latency::cpu.data   1283894500                       # number of ReadExReq miss cycles
system.l3.ReadExReq_miss_latency::total    1283894500                       # number of ReadExReq miss cycles
system.l3.ReadSharedReq_miss_latency::cpu.inst     61087500                       # number of ReadSharedReq miss cycles
system.l3.ReadSharedReq_miss_latency::cpu.data   5007157500                       # number of ReadSharedReq miss cycles
system.l3.ReadSharedReq_miss_latency::total   5068245000                       # number of ReadSharedReq miss cycles
system.l3.demand_miss_latency::cpu.inst      61087500                       # number of demand (read+write) miss cycles
system.l3.demand_miss_latency::cpu.data    6291052000                       # number of demand (read+write) miss cycles
system.l3.demand_miss_latency::total       6352139500                       # number of demand (read+write) miss cycles
system.l3.overall_miss_latency::cpu.inst     61087500                       # number of overall miss cycles
system.l3.overall_miss_latency::cpu.data   6291052000                       # number of overall miss cycles
system.l3.overall_miss_latency::total      6352139500                       # number of overall miss cycles
system.l3.WritebackDirty_accesses::writebacks        21478                       # number of WritebackDirty accesses(hits+misses)
system.l3.WritebackDirty_accesses::total        21478                       # number of WritebackDirty accesses(hits+misses)
system.l3.ReadExReq_accesses::cpu.data           6441                       # number of ReadExReq accesses(hits+misses)
system.l3.ReadExReq_accesses::total              6441                       # number of ReadExReq accesses(hits+misses)
system.l3.ReadSharedReq_accesses::cpu.inst          355                       # number of ReadSharedReq accesses(hits+misses)
system.l3.ReadSharedReq_accesses::cpu.data        17369                       # number of ReadSharedReq accesses(hits+misses)
system.l3.ReadSharedReq_accesses::total         17724                       # number of ReadSharedReq accesses(hits+misses)
system.l3.demand_accesses::cpu.inst               355                       # number of demand (read+write) accesses
system.l3.demand_accesses::cpu.data             23810                       # number of demand (read+write) accesses
system.l3.demand_accesses::total                24165                       # number of demand (read+write) accesses
system.l3.overall_accesses::cpu.inst              355                       # number of overall (read+write) accesses
system.l3.overall_accesses::cpu.data            23810                       # number of overall (read+write) accesses
system.l3.overall_accesses::total               24165                       # number of overall (read+write) accesses
system.l3.ReadExReq_miss_rate::cpu.data      0.994411                       # miss rate for ReadExReq accesses
system.l3.ReadExReq_miss_rate::total         0.994411                       # miss rate for ReadExReq accesses
system.l3.ReadSharedReq_miss_rate::cpu.inst            1                       # miss rate for ReadSharedReq accesses
system.l3.ReadSharedReq_miss_rate::cpu.data     0.750417                       # miss rate for ReadSharedReq accesses
system.l3.ReadSharedReq_miss_rate::total     0.755416                       # miss rate for ReadSharedReq accesses
system.l3.demand_miss_rate::cpu.inst                1                       # miss rate for demand accesses
system.l3.demand_miss_rate::cpu.data         0.816422                       # miss rate for demand accesses
system.l3.demand_miss_rate::total            0.819119                       # miss rate for demand accesses
system.l3.overall_miss_rate::cpu.inst               1                       # miss rate for overall accesses
system.l3.overall_miss_rate::cpu.data        0.816422                       # miss rate for overall accesses
system.l3.overall_miss_rate::total           0.819119                       # miss rate for overall accesses
system.l3.ReadExReq_avg_miss_latency::cpu.data 200451.912568                       # average ReadExReq miss latency
system.l3.ReadExReq_avg_miss_latency::total 200451.912568                       # average ReadExReq miss latency
system.l3.ReadSharedReq_avg_miss_latency::cpu.inst 172077.464789                       # average ReadSharedReq miss latency
system.l3.ReadSharedReq_avg_miss_latency::cpu.data 384161.232162                       # average ReadSharedReq miss latency
system.l3.ReadSharedReq_avg_miss_latency::total 378537.978938                       # average ReadSharedReq miss latency
system.l3.demand_avg_miss_latency::cpu.inst 172077.464789                       # average overall miss latency
system.l3.demand_avg_miss_latency::cpu.data 323630.433664                       # average overall miss latency
system.l3.demand_avg_miss_latency::total 320912.372436                       # average overall miss latency
system.l3.overall_avg_miss_latency::cpu.inst 172077.464789                       # average overall miss latency
system.l3.overall_avg_miss_latency::cpu.data 323630.433664                       # average overall miss latency
system.l3.overall_avg_miss_latency::total 320912.372436                       # average overall miss latency
system.l3.blocked_cycles::no_mshrs                  0                       # number of cycles access was blocked
system.l3.blocked_cycles::no_targets                0                       # number of cycles access was blocked
system.l3.blocked::no_mshrs                         0                       # number of cycles access was blocked
system.l3.blocked::no_targets                       0                       # number of cycles access was blocked
system.l3.avg_blocked_cycles::no_mshrs            nan                       # average number of cycles each access was blocked
system.l3.avg_blocked_cycles::no_targets          nan                       # average number of cycles each access was blocked
system.l3.writebacks::writebacks                16203                       # number of writebacks
system.l3.writebacks::total                     16203                       # number of writebacks
system.l3.CleanEvict_mshr_misses::writebacks          310                       # number of CleanEvict MSHR misses
system.l3.CleanEvict_mshr_misses::total           310                       # number of CleanEvict MSHR misses
system.l3.ReadExReq_mshr_misses::cpu.data         6405                       # number of ReadExReq MSHR misses
system.l3.ReadExReq_mshr_misses::total           6405                       # number of ReadExReq MSHR misses
system.l3.ReadSharedReq_mshr_misses::cpu.inst          355                       # number of ReadSharedReq MSHR misses
system.l3.ReadSharedReq_mshr_misses::cpu.data        13034                       # number of ReadSharedReq MSHR misses
system.l3.ReadSharedReq_mshr_misses::total        13389                       # number of ReadSharedReq MSHR misses
system.l3.demand_mshr_misses::cpu.inst            355                       # number of demand (read+write) MSHR misses
system.l3.demand_mshr_misses::cpu.data          19439                       # number of demand (read+write) MSHR misses
system.l3.demand_mshr_misses::total             19794                       # number of demand (read+write) MSHR misses
system.l3.overall_mshr_misses::cpu.inst           355                       # number of overall MSHR misses
system.l3.overall_mshr_misses::cpu.data         19439                       # number of overall MSHR misses
system.l3.overall_mshr_misses::total            19794                       # number of overall MSHR misses
system.l3.ReadExReq_mshr_miss_latency::cpu.data   1181414500                       # number of ReadExReq MSHR miss cycles
system.l3.ReadExReq_mshr_miss_latency::total   1181414500                       # number of ReadExReq MSHR miss cycles
system.l3.ReadSharedReq_mshr_miss_latency::cpu.inst     55407500                       # number of ReadSharedReq MSHR miss cycles
system.l3.ReadSharedReq_mshr_miss_latency::cpu.data   4798613500                       # number of ReadSharedReq MSHR miss cycles
system.l3.ReadSharedReq_mshr_miss_latency::total   4854021000                       # number of ReadSharedReq MSHR miss cycles
system.l3.demand_mshr_miss_latency::cpu.inst     55407500                       # number of demand (read+write) MSHR miss cycles
system.l3.demand_mshr_miss_latency::cpu.data   5980028000                       # number of demand (read+write) MSHR miss cycles
system.l3.demand_mshr_miss_latency::total   6035435500                       # number of demand (read+write) MSHR miss cycles
system.l3.overall_mshr_miss_latency::cpu.inst     55407500                       # number of overall MSHR miss cycles
system.l3.overall_mshr_miss_latency::cpu.data   5980028000                       # number of overall MSHR miss cycles
system.l3.overall_mshr_miss_latency::total   6035435500                       # number of overall MSHR miss cycles
system.l3.CleanEvict_mshr_miss_rate::writebacks          inf                       # mshr miss rate for CleanEvict accesses
system.l3.CleanEvict_mshr_miss_rate::total          inf                       # mshr miss rate for CleanEvict accesses
system.l3.ReadExReq_mshr_miss_rate::cpu.data     0.994411                       # mshr miss rate for ReadExReq accesses
system.l3.ReadExReq_mshr_miss_rate::total     0.994411                       # mshr miss rate for ReadExReq accesses
system.l3.ReadSharedReq_mshr_miss_rate::cpu.inst            1                       # mshr miss rate for ReadSharedReq accesses
system.l3.ReadSharedReq_mshr_miss_rate::cpu.data     0.750417                       # mshr miss rate for ReadSharedReq accesses
system.l3.ReadSharedReq_mshr_miss_rate::total     0.755416                       # mshr miss rate for ReadSharedReq accesses
system.l3.demand_mshr_miss_rate::cpu.inst            1                       # mshr miss rate for demand accesses
system.l3.demand_mshr_miss_rate::cpu.data     0.816422                       # mshr miss rate for demand accesses
system.l3.demand_mshr_miss_rate::total       0.819119                       # mshr miss rate for demand accesses
system.l3.overall_mshr_miss_rate::cpu.inst            1                       # mshr miss rate for overall accesses
system.l3.overall_mshr_miss_rate::cpu.data     0.816422                       # mshr miss rate for overall accesses
system.l3.overall_mshr_miss_rate::total      0.819119                       # mshr miss rate for overall accesses
system.l3.ReadExReq_avg_mshr_miss_latency::cpu.data 184451.912568                       # average ReadExReq mshr miss latency
system.l3.ReadExReq_avg_mshr_miss_latency::total 184451.912568                       # average ReadExReq mshr miss latency
system.l3.ReadSharedReq_avg_mshr_miss_latency::cpu.inst 156077.464789                       # average ReadSharedReq mshr miss latency
system.l3.ReadSharedReq_avg_mshr_miss_latency::cpu.data 368161.232162                       # average ReadSharedReq mshr miss latency
system.l3.ReadSharedReq_avg_mshr_miss_latency::total 362537.978938                       # average ReadSharedReq mshr miss latency
system.l3.demand_avg_mshr_miss_latency::cpu.inst 156077.464789                       # average overall mshr miss latency
system.l3.demand_avg_mshr_miss_latency::cpu.data 307630.433664                       # average overall mshr miss latency
system.l3.demand_avg_mshr_miss_latency::total 304912.372436                       # average overall mshr miss latency
system.l3.overall_avg_mshr_miss_latency::cpu.inst 156077.464789                       # average overall mshr miss latency
system.l3.overall_avg_mshr_miss_latency::cpu.data 307630.433664                       # average overall mshr miss latency
system.l3.overall_avg_mshr_miss_latency::total 304912.372436                       # average overall mshr miss latency
system.l3.replacements                          37136                       # number of replacements
system.membus.snoop_filter.tot_requests         38191                       # Total number of requests made to the snoop filter.
system.membus.snoop_filter.hit_single_requests        18397                       # Number of requests hitting in the snoop filter with a single holder of the requested data.
system.membus.snoop_filter.hit_multi_requests            0                       # Number of requests hitting in the snoop filter with multiple (>1) holders of the requested data.
system.membus.snoop_filter.tot_snoops               0                       # Total number of snoops made to the snoop filter.
system.membus.snoop_filter.hit_single_snoops            0                       # Number of snoops hitting in the snoop filter with a single holder of the requested data.
system.membus.snoop_filter.hit_multi_snoops            0                       # Number of snoops hitting in the snoop filter with multiple (>1) holders of the requested data.
system.membus.pwrStateResidencyTicks::UNDEFINED  93897088500                       # Cumulative time (in ticks) in various power states
system.membus.trans_dist::ReadResp              13389                       # Transaction distribution
system.membus.trans_dist::WritebackDirty        16203                       # Transaction distribution
system.membus.trans_dist::CleanEvict              318                       # Transaction distribution
system.membus.trans_dist::ReadExReq              6405                       # Transaction distribution
system.membus.trans_dist::ReadExResp             6405                       # Transaction distribution
system.membus.trans_dist::ReadSharedReq         13389                       # Transaction distribution
system.membus.pkt_count_system.l3.mem_side::system.mem_ctrls.port        56109                       # Packet count per connected master and slave (bytes)
system.membus.pkt_count_system.l3.mem_side::total        56109                       # Packet count per connected master and slave (bytes)
system.membus.pkt_count::total                  56109                       # Packet count per connected master and slave (bytes)
system.membus.pkt_size_system.l3.mem_side::system.mem_ctrls.port      2303808                       # Cumulative packet size per connected master and slave (bytes)
system.membus.pkt_size_system.l3.mem_side::total      2303808                       # Cumulative packet size per connected master and slave (bytes)
system.membus.pkt_size::total                 2303808                       # Cumulative packet size per connected master and slave (bytes)
system.membus.snoops                                0                       # Total snoops (count)
system.membus.snoopTraffic                          0                       # Total snoop traffic (bytes)
system.membus.snoop_fanout::samples             19794                       # Request fanout histogram
system.membus.snoop_fanout::mean                    0                       # Request fanout histogram
system.membus.snoop_fanout::stdev                   0                       # Request fanout histogram
system.membus.snoop_fanout::underflows              0      0.00%      0.00% # Request fanout histogram
system.membus.snoop_fanout::0                   19794    100.00%    100.00% # Request fanout histogram
system.membus.snoop_fanout::1                       0      0.00%    100.00% # Request fanout histogram
system.membus.snoop_fanout::overflows               0      0.00%    100.00% # Request fanout histogram
system.membus.snoop_fanout::min_value               0                       # Request fanout histogram
system.membus.snoop_fanout::max_value               0                       # Request fanout histogram
system.membus.snoop_fanout::total               19794                       # Request fanout histogram
system.membus.reqLayer2.occupancy           117929500                       # Layer occupancy (ticks)
system.membus.reqLayer2.utilization               0.1                       # Layer utilization (%)
system.membus.respLayer1.occupancy          108476000                       # Layer occupancy (ticks)
system.membus.respLayer1.utilization              0.1                       # Layer utilization (%)
system.tol2bus.snoop_filter.tot_requests        94228                       # Total number of requests made to the snoop filter.
system.tol2bus.snoop_filter.hit_single_requests        48469                       # Number of requests hitting in the snoop filter with a single holder of the requested data.
system.tol2bus.snoop_filter.hit_multi_requests            0                       # Number of requests hitting in the snoop filter with multiple (>1) holders of the requested data.
system.tol2bus.snoop_filter.tot_snoops           4178                       # Total number of snoops made to the snoop filter.
system.tol2bus.snoop_filter.hit_single_snoops         4178                       # Number of snoops hitting in the snoop filter with a single holder of the requested data.
system.tol2bus.snoop_filter.hit_multi_snoops            0                       # Number of snoops hitting in the snoop filter with multiple (>1) holders of the requested data.
system.tol2bus.pwrStateResidencyTicks::UNDEFINED  93897088500                       # Cumulative time (in ticks) in various power states
system.tol2bus.trans_dist::ReadResp             39069                       # Transaction distribution
system.tol2bus.trans_dist::WritebackDirty        64847                       # Transaction distribution
system.tol2bus.trans_dist::WritebackClean           46                       # Transaction distribution
system.tol2bus.trans_dist::CleanEvict           23111                       # Transaction distribution
system.tol2bus.trans_dist::UpgradeReq            3531                       # Transaction distribution
system.tol2bus.trans_dist::UpgradeResp           3531                       # Transaction distribution
system.tol2bus.trans_dist::ReadExReq             6690                       # Transaction distribution
system.tol2bus.trans_dist::ReadExResp            6690                       # Transaction distribution
system.tol2bus.trans_dist::ReadCleanReq           355                       # Transaction distribution
system.tol2bus.trans_dist::ReadSharedReq        38714                       # Transaction distribution
system.tol2bus.pkt_count_system.cpu.icache.mem_side::system.l2.cpu_side          756                       # Packet count per connected master and slave (bytes)
system.tol2bus.pkt_count_system.cpu.dcache.mem_side::system.l2.cpu_side       142762                       # Packet count per connected master and slave (bytes)
system.tol2bus.pkt_count::total                143518                       # Packet count per connected master and slave (bytes)
system.tol2bus.pkt_size_system.cpu.icache.mem_side::system.l2.cpu_side        25664                       # Cumulative packet size per connected master and slave (bytes)
system.tol2bus.pkt_size_system.cpu.dcache.mem_side::system.l2.cpu_side      5681472                       # Cumulative packet size per connected master and slave (bytes)
system.tol2bus.pkt_size::total                5707136                       # Cumulative packet size per connected master and slave (bytes)
system.tol2bus.snoops                           43066                       # Total snoops (count)
system.tol2bus.snoopTraffic                   1374592                       # Total snoop traffic (bytes)
system.tol2bus.snoop_fanout::samples            92356                       # Request fanout histogram
system.tol2bus.snoop_fanout::mean            0.045238                       # Request fanout histogram
system.tol2bus.snoop_fanout::stdev           0.207827                       # Request fanout histogram
system.tol2bus.snoop_fanout::underflows             0      0.00%      0.00% # Request fanout histogram
system.tol2bus.snoop_fanout::0                  88178     95.48%     95.48% # Request fanout histogram
system.tol2bus.snoop_fanout::1                   4178      4.52%    100.00% # Request fanout histogram
system.tol2bus.snoop_fanout::2                      0      0.00%    100.00% # Request fanout histogram
system.tol2bus.snoop_fanout::3                      0      0.00%    100.00% # Request fanout histogram
system.tol2bus.snoop_fanout::4                      0      0.00%    100.00% # Request fanout histogram
system.tol2bus.snoop_fanout::overflows              0      0.00%    100.00% # Request fanout histogram
system.tol2bus.snoop_fanout::min_value              0                       # Request fanout histogram
system.tol2bus.snoop_fanout::max_value              1                       # Request fanout histogram
system.tol2bus.snoop_fanout::total              92356                       # Request fanout histogram
system.tol2bus.reqLayer0.occupancy           90529000                       # Layer occupancy (ticks)
system.tol2bus.reqLayer0.utilization              0.1                       # Layer utilization (%)
system.tol2bus.respLayer0.occupancy            532500                       # Layer occupancy (ticks)
system.tol2bus.respLayer0.utilization             0.0                       # Layer utilization (%)
system.tol2bus.respLayer1.occupancy          69871500                       # Layer occupancy (ticks)
system.tol2bus.respLayer1.utilization             0.1                       # Layer utilization (%)
system.tol3bus.snoop_filter.tot_requests        46011                       # Total number of requests made to the snoop filter.
system.tol3bus.snoop_filter.hit_single_requests        21846                       # Number of requests hitting in the snoop filter with a single holder of the requested data.
system.tol3bus.snoop_filter.hit_multi_requests            0                       # Number of requests hitting in the snoop filter with multiple (>1) holders of the requested data.
system.tol3bus.snoop_filter.tot_snoops          20925                       # Total number of snoops made to the snoop filter.
system.tol3bus.snoop_filter.hit_single_snoops        20925                       # Number of snoops hitting in the snoop filter with a single holder of the requested data.
system.tol3bus.snoop_filter.hit_multi_snoops            0                       # Number of snoops hitting in the snoop filter with multiple (>1) holders of the requested data.
system.tol3bus.pwrStateResidencyTicks::UNDEFINED  93897088500                       # Cumulative time (in ticks) in various power states
system.tol3bus.trans_dist::ReadResp             17724                       # Transaction distribution
system.tol3bus.trans_dist::WritebackDirty        37681                       # Transaction distribution
system.tol3bus.trans_dist::CleanEvict           21301                       # Transaction distribution
system.tol3bus.trans_dist::ReadExReq             6441                       # Transaction distribution
system.tol3bus.trans_dist::ReadExResp            6441                       # Transaction distribution
system.tol3bus.trans_dist::ReadSharedReq        17724                       # Transaction distribution
system.tol3bus.pkt_count_system.l2.mem_side::system.l3.cpu_side        70176                       # Packet count per connected master and slave (bytes)
system.tol3bus.pkt_size_system.l2.mem_side::system.l3.cpu_side      2921152                       # Cumulative packet size per connected master and slave (bytes)
system.tol3bus.snoops                           37136                       # Total snoops (count)
system.tol3bus.snoopTraffic                   1036992                       # Total snoop traffic (bytes)
system.tol3bus.snoop_fanout::samples            61301                       # Request fanout histogram
system.tol3bus.snoop_fanout::mean            0.341348                       # Request fanout histogram
system.tol3bus.snoop_fanout::stdev           0.474166                       # Request fanout histogram
system.tol3bus.snoop_fanout::underflows             0      0.00%      0.00% # Request fanout histogram
system.tol3bus.snoop_fanout::0                  40376     65.87%     65.87% # Request fanout histogram
system.tol3bus.snoop_fanout::1                  20925     34.13%    100.00% # Request fanout histogram
system.tol3bus.snoop_fanout::overflows              0      0.00%    100.00% # Request fanout histogram
system.tol3bus.snoop_fanout::min_value              0                       # Request fanout histogram
system.tol3bus.snoop_fanout::max_value              1                       # Request fanout histogram
system.tol3bus.snoop_fanout::total              61301                       # Request fanout histogram
system.tol3bus.reqLayer0.occupancy           44483500                       # Layer occupancy (ticks)
system.tol3bus.reqLayer0.utilization              0.0                       # Layer utilization (%)
system.tol3bus.respLayer0.occupancy          36247500                       # Layer occupancy (ticks)
system.tol3bus.respLayer0.utilization             0.0                       # Layer utilization (%)

---------- End Simulation Statistics   ----------
