
---------- Begin Simulation Statistics ----------
sim_seconds                                  0.092246                       # Number of seconds simulated
sim_ticks                                 92245883500                       # Number of ticks simulated
final_tick                                92245883500                       # Number of ticks from beginning of simulation (restored from checkpoints and never reset)
sim_freq                                 1000000000000                       # Frequency of simulated ticks
host_inst_rate                                1112972                       # Simulator instruction rate (inst/s)
host_op_rate                                  1832530                       # Simulator op (including micro ops) rate (op/s)
host_tick_rate                             2302482525                       # Simulator tick rate (ticks/s)
host_mem_usage                                 660636                       # Number of bytes of host memory used
host_seconds                                    40.06                       # Real time elapsed on the host
sim_insts                                    44589703                       # Number of instructions simulated
sim_ops                                      73417842                       # Number of ops (including micro ops) simulated
system.voltage_domain.voltage                       1                       # Voltage in Volts
system.clk_domain.clock                          1000                       # Clock period in ticks
system.mem_ctrls.pwrStateResidencyTicks::UNDEFINED  92245883500                       # Cumulative time (in ticks) in various power states
system.mem_ctrls.bytes_read::cpu.inst           22720                       # Number of bytes read from this memory
system.mem_ctrls.bytes_read::cpu.data          988224                       # Number of bytes read from this memory
system.mem_ctrls.bytes_read::total            1010944                       # Number of bytes read from this memory
system.mem_ctrls.bytes_inst_read::cpu.inst        22720                       # Number of instructions bytes read from this memory
system.mem_ctrls.bytes_inst_read::total         22720                       # Number of instructions bytes read from this memory
system.mem_ctrls.bytes_written::writebacks       721792                       # Number of bytes written to this memory
system.mem_ctrls.bytes_written::total          721792                       # Number of bytes written to this memory
system.mem_ctrls.num_reads::cpu.inst              355                       # Number of read requests responded to by this memory
system.mem_ctrls.num_reads::cpu.data            15441                       # Number of read requests responded to by this memory
system.mem_ctrls.num_reads::total               15796                       # Number of read requests responded to by this memory
system.mem_ctrls.num_writes::writebacks         11278                       # Number of write requests responded to by this memory
system.mem_ctrls.num_writes::total              11278                       # Number of write requests responded to by this memory
system.mem_ctrls.bw_read::cpu.inst             246298                       # Total read bandwidth from this memory (bytes/s)
system.mem_ctrls.bw_read::cpu.data           10712933                       # Total read bandwidth from this memory (bytes/s)
system.mem_ctrls.bw_read::total              10959232                       # Total read bandwidth from this memory (bytes/s)
system.mem_ctrls.bw_inst_read::cpu.inst        246298                       # Instruction read bandwidth from this memory (bytes/s)
system.mem_ctrls.bw_inst_read::total           246298                       # Instruction read bandwidth from this memory (bytes/s)
system.mem_ctrls.bw_write::writebacks         7824653                       # Write bandwidth from this memory (bytes/s)
system.mem_ctrls.bw_write::total              7824653                       # Write bandwidth from this memory (bytes/s)
system.mem_ctrls.bw_total::writebacks         7824653                       # Total bandwidth to/from this memory (bytes/s)
system.mem_ctrls.bw_total::cpu.inst            246298                       # Total bandwidth to/from this memory (bytes/s)
system.mem_ctrls.bw_total::cpu.data          10712933                       # Total bandwidth to/from this memory (bytes/s)
system.mem_ctrls.bw_total::total             18783884                       # Total bandwidth to/from this memory (bytes/s)
system.pwrStateResidencyTicks::UNDEFINED  92245883500                       # Cumulative time (in ticks) in various power states
system.cpu_voltage_domain.voltage                   1                       # Voltage in Volts
system.cpu_clk_domain.clock                       500                       # Clock period in ticks
system.cpu.dtb.walker.pwrStateResidencyTicks::UNDEFINED  92245883500                       # Cumulative time (in ticks) in various power states
system.cpu.dtb.rdAccesses                    20877742                       # TLB accesses on read requests
system.cpu.dtb.wrAccesses                     5816533                       # TLB accesses on write requests
system.cpu.dtb.rdMisses                           166                       # TLB misses on read requests
system.cpu.dtb.wrMisses                           106                       # TLB misses on write requests
system.cpu.apic_clk_domain.clock                 8000                       # Clock period in ticks
system.cpu.interrupts.pwrStateResidencyTicks::UNDEFINED  92245883500                       # Cumulative time (in ticks) in various power states
system.cpu.itb.walker.pwrStateResidencyTicks::UNDEFINED  92245883500                       # Cumulative time (in ticks) in various power states
system.cpu.itb.rdAccesses                           0                       # TLB accesses on read requests
system.cpu.itb.wrAccesses                    59916890                       # TLB accesses on write requests
system.cpu.itb.rdMisses                             0                       # TLB misses on read requests
system.cpu.itb.wrMisses                            36                       # TLB misses on write requests
system.cpu.workload.numSyscalls                     9                       # Number of system calls
system.cpu.pwrStateResidencyTicks::ON     92245883500                       # Cumulative time (in ticks) in various power states
system.cpu.numCycles                        184491767                       # number of cpu cycles simulated
system.cpu.numWorkItemsStarted                      0                       # number of work items this cpu started
system.cpu.numWorkItemsCompleted                    0                       # number of work items this cpu completed
system.cpu.committedInsts                    44589703                       # Number of instructions committed
system.cpu.committedOps                      73417842                       # Number of ops (including micro ops) committed
system.cpu.num_int_alu_accesses              72895918                       # Number of integer alu accesses
system.cpu.num_fp_alu_accesses                   1951                       # Number of float alu accesses
system.cpu.num_vec_alu_accesses                     0                       # Number of vector alu accesses
system.cpu.num_func_calls                      944900                       # number of times a function call or return occured
system.cpu.num_conditional_control_insts      4232452                       # number of instructions that are conditional controls
system.cpu.num_int_insts                     72895918                       # number of integer instructions
system.cpu.num_fp_insts                          1951                       # number of float instructions
system.cpu.num_vec_insts                            0                       # number of vector instructions
system.cpu.num_int_register_reads           163691559                       # number of times the integer registers were read
system.cpu.num_int_register_writes           63686401                       # number of times the integer registers were written
system.cpu.num_fp_register_reads                 3771                       # number of times the floating registers were read
system.cpu.num_fp_register_writes                1484                       # number of times the floating registers were written
system.cpu.num_vec_register_reads                   0                       # number of times the vector registers were read
system.cpu.num_vec_register_writes                  0                       # number of times the vector registers were written
system.cpu.num_cc_register_reads             27636615                       # number of times the CC registers were read
system.cpu.num_cc_register_writes            24933069                       # number of times the CC registers were written
system.cpu.num_mem_refs                      26694269                       # number of memory refs
system.cpu.num_load_insts                    20877737                       # Number of load instructions
system.cpu.num_store_insts                    5816532                       # Number of store instructions
system.cpu.num_idle_cycles                          0                       # Number of idle cycles
system.cpu.num_busy_cycles                  184491767                       # Number of busy cycles
system.cpu.not_idle_fraction                        1                       # Percentage of non-idle cycles
system.cpu.idle_fraction                            0                       # Percentage of idle cycles
system.cpu.Branches                           5574736                       # Number of branches fetched
system.cpu.op_class::No_OpClass                175846      0.24%      0.24% # Class of executed instruction
system.cpu.op_class::IntAlu                  45543769     62.03%     62.27% # Class of executed instruction
system.cpu.op_class::IntMult                        4      0.00%     62.27% # Class of executed instruction
system.cpu.op_class::IntDiv                   1002994      1.37%     63.64% # Class of executed instruction
system.cpu.op_class::FloatAdd                      10      0.00%     63.64% # Class of executed instruction
system.cpu.op_class::FloatCmp                       0      0.00%     63.64% # Class of executed instruction
system.cpu.op_class::FloatCvt                       0      0.00%     63.64% # Class of executed instruction
system.cpu.op_class::FloatMult                      0      0.00%     63.64% # Class of executed instruction
system.cpu.op_class::FloatMultAcc                   0      0.00%     63.64% # Class of executed instruction
system.cpu.op_class::FloatDiv                       0      0.00%     63.64% # Class of executed instruction
system.cpu.op_class::FloatMisc                      0      0.00%     63.64% # Class of executed instruction
system.cpu.op_class::FloatSqrt                      0      0.00%     63.64% # Class of executed instruction
system.cpu.op_class::SimdAdd                      374      0.00%     63.64% # Class of executed instruction
system.cpu.op_class::SimdAddAcc                     0      0.00%     63.64% # Class of executed instruction
system.cpu.op_class::SimdAlu                       68      0.00%     63.64% # Class of executed instruction
system.cpu.op_class::SimdCmp                        0      0.00%     63.64% # Class of executed instruction
system.cpu.op_class::SimdCvt                      108      0.00%     63.64% # Class of executed instruction
system.cpu.op_class::SimdMisc                     214      0.00%     63.64% # Class of executed instruction
system.cpu.op_class::SimdMult                       0      0.00%     63.64% # Class of executed instruction
system.cpu.op_class::SimdMultAcc                    0      0.00%     63.64% # Class of executed instruction
system.cpu.op_class::SimdShift                    186      0.00%     63.64% # Class of executed instruction
system.cpu.op_class::SimdShiftAcc                   0      0.00%     63.64% # Class of executed instruction
system.cpu.op_class::SimdSqrt                       0      0.00%     63.64% # Class of executed instruction
system.cpu.op_class::SimdFloatAdd                   0      0.00%     63.64% # Class of executed instruction
system.cpu.op_class::SimdFloatAlu                   0      0.00%     63.64% # Class of executed instruction
system.cpu.op_class::SimdFloatCmp                   0      0.00%     63.64% # Class of executed instruction
system.cpu.op_class::SimdFloatCvt                   0      0.00%     63.64% # Class of executed instruction
system.cpu.op_class::SimdFloatDiv                   0      0.00%     63.64% # Class of executed instruction
system.cpu.op_class::SimdFloatMisc                  0      0.00%     63.64% # Class of executed instruction
system.cpu.op_class::SimdFloatMult                  0      0.00%     63.64% # Class of executed instruction
system.cpu.op_class::SimdFloatMultAcc               0      0.00%     63.64% # Class of executed instruction
system.cpu.op_class::SimdFloatSqrt                  0      0.00%     63.64% # Class of executed instruction
system.cpu.op_class::MemRead                 20877677     28.44%     92.08% # Class of executed instruction
system.cpu.op_class::MemWrite                 5816113      7.92%    100.00% # Class of executed instruction
system.cpu.op_class::FloatMemRead                  60      0.00%    100.00% # Class of executed instruction
system.cpu.op_class::FloatMemWrite                419      0.00%    100.00% # Class of executed instruction
system.cpu.op_class::IprAccess                      0      0.00%    100.00% # Class of executed instruction
system.cpu.op_class::InstPrefetch                   0      0.00%    100.00% # Class of executed instruction
system.cpu.op_class::total                   73417842                       # Class of executed instruction
system.cpu.dcache.tags.pwrStateResidencyTicks::UNDEFINED  92245883500                       # Cumulative time (in ticks) in various power states
system.cpu.dcache.tags.tagsinuse           510.033295                       # Cycle average of tags in use
system.cpu.dcache.tags.total_refs            26694275                       # Total number of references to valid blocks.
system.cpu.dcache.tags.sampled_refs             45404                       # Sample count of references to valid blocks.
system.cpu.dcache.tags.avg_refs            587.927826                       # Average number of references to valid blocks.
system.cpu.dcache.tags.warmup_cycle            766500                       # Cycle when the warmup percentage was hit.
system.cpu.dcache.tags.occ_blocks::cpu.data   510.033295                       # Average occupied blocks per requestor
system.cpu.dcache.tags.occ_percent::cpu.data     0.996159                       # Average percentage of cache occupancy
system.cpu.dcache.tags.occ_percent::total     0.996159                       # Average percentage of cache occupancy
system.cpu.dcache.tags.occ_task_id_blocks::1024          512                       # Occupied blocks per task id
system.cpu.dcache.tags.age_task_id_blocks_1024::0           11                       # Occupied blocks per task id
system.cpu.dcache.tags.age_task_id_blocks_1024::1           16                       # Occupied blocks per task id
system.cpu.dcache.tags.age_task_id_blocks_1024::2           34                       # Occupied blocks per task id
system.cpu.dcache.tags.age_task_id_blocks_1024::3          450                       # Occupied blocks per task id
system.cpu.dcache.tags.age_task_id_blocks_1024::4            1                       # Occupied blocks per task id
system.cpu.dcache.tags.occ_task_id_percent::1024            1                       # Percentage of cache occupancy per task id
system.cpu.dcache.tags.tag_accesses          53433954                       # Number of tag accesses
system.cpu.dcache.tags.data_accesses         53433954                       # Number of data accesses
system.cpu.dcache.pwrStateResidencyTicks::UNDEFINED  92245883500                       # Cumulative time (in ticks) in various power states
system.cpu.dcache.ReadReq_hits::cpu.data     20839028                       # number of ReadReq hits
system.cpu.dcache.ReadReq_hits::total        20839028                       # number of ReadReq hits
system.cpu.dcache.WriteReq_hits::cpu.data      5802563                       # number of WriteReq hits
system.cpu.dcache.WriteReq_hits::total        5802563                       # number of WriteReq hits
system.cpu.dcache.demand_hits::cpu.data      26641591                       # number of demand (read+write) hits
system.cpu.dcache.demand_hits::total         26641591                       # number of demand (read+write) hits
system.cpu.dcache.overall_hits::cpu.data     26641591                       # number of overall hits
system.cpu.dcache.overall_hits::total        26641591                       # number of overall hits
system.cpu.dcache.ReadReq_misses::cpu.data        38714                       # number of ReadReq misses
system.cpu.dcache.ReadReq_misses::total         38714                       # number of ReadReq misses
system.cpu.dcache.WriteReq_misses::cpu.data        13970                       # number of WriteReq misses
system.cpu.dcache.WriteReq_misses::total        13970                       # number of WriteReq misses
system.cpu.dcache.demand_misses::cpu.data        52684                       # number of demand (read+write) misses
system.cpu.dcache.demand_misses::total          52684                       # number of demand (read+write) misses
system.cpu.dcache.overall_misses::cpu.data        52684                       # number of overall misses
system.cpu.dcache.overall_misses::total         52684                       # number of overall misses
system.cpu.dcache.ReadReq_miss_latency::cpu.data   4188030000                       # number of ReadReq miss cycles
system.cpu.dcache.ReadReq_miss_latency::total   4188030000                       # number of ReadReq miss cycles
system.cpu.dcache.WriteReq_miss_latency::cpu.data   1433429000                       # number of WriteReq miss cycles
system.cpu.dcache.WriteReq_miss_latency::total   1433429000                       # number of WriteReq miss cycles
system.cpu.dcache.demand_miss_latency::cpu.data   5621459000                       # number of demand (read+write) miss cycles
system.cpu.dcache.demand_miss_latency::total   5621459000                       # number of demand (read+write) miss cycles
system.cpu.dcache.overall_miss_latency::cpu.data   5621459000                       # number of overall miss cycles
system.cpu.dcache.overall_miss_latency::total   5621459000                       # number of overall miss cycles
system.cpu.dcache.ReadReq_accesses::cpu.data     20877742                       # number of ReadReq accesses(hits+misses)
system.cpu.dcache.ReadReq_accesses::total     20877742                       # number of ReadReq accesses(hits+misses)
system.cpu.dcache.WriteReq_accesses::cpu.data      5816533                       # number of WriteReq accesses(hits+misses)
system.cpu.dcache.WriteReq_accesses::total      5816533                       # number of WriteReq accesses(hits+misses)
system.cpu.dcache.demand_accesses::cpu.data     26694275                       # number of demand (read+write) accesses
system.cpu.dcache.demand_accesses::total     26694275                       # number of demand (read+write) accesses
system.cpu.dcache.overall_accesses::cpu.data     26694275                       # number of overall (read+write) accesses
system.cpu.dcache.overall_accesses::total     26694275                       # number of overall (read+write) accesses
system.cpu.dcache.ReadReq_miss_rate::cpu.data     0.001854                       # miss rate for ReadReq accesses
system.cpu.dcache.ReadReq_miss_rate::total     0.001854                       # miss rate for ReadReq accesses
system.cpu.dcache.WriteReq_miss_rate::cpu.data     0.002402                       # miss rate for WriteReq accesses
system.cpu.dcache.WriteReq_miss_rate::total     0.002402                       # miss rate for WriteReq accesses
system.cpu.dcache.demand_miss_rate::cpu.data     0.001974                       # miss rate for demand accesses
system.cpu.dcache.demand_miss_rate::total     0.001974                       # miss rate for demand accesses
system.cpu.dcache.overall_miss_rate::cpu.data     0.001974                       # miss rate for overall accesses
system.cpu.dcache.overall_miss_rate::total     0.001974                       # miss rate for overall accesses
system.cpu.dcache.ReadReq_avg_miss_latency::cpu.data 108178.695046                       # average ReadReq miss latency
system.cpu.dcache.ReadReq_avg_miss_latency::total 108178.695046                       # average ReadReq miss latency
system.cpu.dcache.WriteReq_avg_miss_latency::cpu.data 102607.659270                       # average WriteReq miss latency
system.cpu.dcache.WriteReq_avg_miss_latency::total 102607.659270                       # average WriteReq miss latency
system.cpu.dcache.demand_avg_miss_latency::cpu.data 106701.446359                       # average overall miss latency
system.cpu.dcache.demand_avg_miss_latency::total 106701.446359                       # average overall miss latency
system.cpu.dcache.overall_avg_miss_latency::cpu.data 106701.446359                       # average overall miss latency
system.cpu.dcache.overall_avg_miss_latency::total 106701.446359                       # average overall miss latency
system.cpu.dcache.blocked_cycles::no_mshrs            0                       # number of cycles access was blocked
system.cpu.dcache.blocked_cycles::no_targets            0                       # number of cycles access was blocked
system.cpu.dcache.blocked::no_mshrs                 0                       # number of cycles access was blocked
system.cpu.dcache.blocked::no_targets               0                       # number of cycles access was blocked
system.cpu.dcache.avg_blocked_cycles::no_mshrs          nan                       # average number of cycles each access was blocked
system.cpu.dcache.avg_blocked_cycles::no_targets          nan                       # average number of cycles each access was blocked
system.cpu.dcache.writebacks::writebacks        43369                       # number of writebacks
system.cpu.dcache.writebacks::total             43369                       # number of writebacks
system.cpu.dcache.ReadReq_mshr_misses::cpu.data        38714                       # number of ReadReq MSHR misses
system.cpu.dcache.ReadReq_mshr_misses::total        38714                       # number of ReadReq MSHR misses
system.cpu.dcache.WriteReq_mshr_misses::cpu.data        13970                       # number of WriteReq MSHR misses
system.cpu.dcache.WriteReq_mshr_misses::total        13970                       # number of WriteReq MSHR misses
system.cpu.dcache.demand_mshr_misses::cpu.data        52684                       # number of demand (read+write) MSHR misses
system.cpu.dcache.demand_mshr_misses::total        52684                       # number of demand (read+write) MSHR misses
system.cpu.dcache.overall_mshr_misses::cpu.data        52684                       # number of overall MSHR misses
system.cpu.dcache.overall_mshr_misses::total        52684                       # number of overall MSHR misses
system.cpu.dcache.ReadReq_mshr_miss_latency::cpu.data   4149316000                       # number of ReadReq MSHR miss cycles
system.cpu.dcache.ReadReq_mshr_miss_latency::total   4149316000                       # number of ReadReq MSHR miss cycles
system.cpu.dcache.WriteReq_mshr_miss_latency::cpu.data   1419459000                       # number of WriteReq MSHR miss cycles
system.cpu.dcache.WriteReq_mshr_miss_latency::total   1419459000                       # number of WriteReq MSHR miss cycles
system.cpu.dcache.demand_mshr_miss_latency::cpu.data   5568775000                       # number of demand (read+write) MSHR miss cycles
system.cpu.dcache.demand_mshr_miss_latency::total   5568775000                       # number of demand (read+write) MSHR miss cycles
system.cpu.dcache.overall_mshr_miss_latency::cpu.data   5568775000                       # number of overall MSHR miss cycles
system.cpu.dcache.overall_mshr_miss_latency::total   5568775000                       # number of overall MSHR miss cycles
system.cpu.dcache.ReadReq_mshr_miss_rate::cpu.data     0.001854                       # mshr miss rate for ReadReq accesses
system.cpu.dcache.ReadReq_mshr_miss_rate::total     0.001854                       # mshr miss rate for ReadReq accesses
system.cpu.dcache.WriteReq_mshr_miss_rate::cpu.data     0.002402                       # mshr miss rate for WriteReq accesses
system.cpu.dcache.WriteReq_mshr_miss_rate::total     0.002402                       # mshr miss rate for WriteReq accesses
system.cpu.dcache.demand_mshr_miss_rate::cpu.data     0.001974                       # mshr miss rate for demand accesses
system.cpu.dcache.demand_mshr_miss_rate::total     0.001974                       # mshr miss rate for demand accesses
system.cpu.dcache.overall_mshr_miss_rate::cpu.data     0.001974                       # mshr miss rate for overall accesses
system.cpu.dcache.overall_mshr_miss_rate::total     0.001974                       # mshr miss rate for overall accesses
system.cpu.dcache.ReadReq_avg_mshr_miss_latency::cpu.data 107178.695046                       # average ReadReq mshr miss latency
system.cpu.dcache.ReadReq_avg_mshr_miss_latency::total 107178.695046                       # average ReadReq mshr miss latency
system.cpu.dcache.WriteReq_avg_mshr_miss_latency::cpu.data 101607.659270                       # average WriteReq mshr miss latency
system.cpu.dcache.WriteReq_avg_mshr_miss_latency::total 101607.659270                       # average WriteReq mshr miss latency
system.cpu.dcache.demand_avg_mshr_miss_latency::cpu.data 105701.446359                       # average overall mshr miss latency
system.cpu.dcache.demand_avg_mshr_miss_latency::total 105701.446359                       # average overall mshr miss latency
system.cpu.dcache.overall_avg_mshr_miss_latency::cpu.data 105701.446359                       # average overall mshr miss latency
system.cpu.dcache.overall_avg_mshr_miss_latency::total 105701.446359                       # average overall mshr miss latency
system.cpu.dcache.replacements                  44892                       # number of replacements
system.cpu.dtb_walker_cache.tags.pwrStateResidencyTicks::UNDEFINED  92245883500                       # Cumulative time (in ticks) in various power states
system.cpu.dtb_walker_cache.tags.tagsinuse            0                       # Cycle average of tags in use
system.cpu.dtb_walker_cache.tags.total_refs            0                       # Total number of references to valid blocks.
system.cpu.dtb_walker_cache.tags.sampled_refs            0                       # Sample count of references to valid blocks.
system.cpu.dtb_walker_cache.tags.avg_refs          nan                       # Average number of references to valid blocks.
system.cpu.dtb_walker_cache.tags.warmup_cycle            0                       # Cycle when the warmup percentage was hit.
system.cpu.dtb_walker_cache.tags.tag_accesses            0                       # Number of tag accesses
system.cpu.dtb_walker_cache.tags.data_accesses            0                       # Number of data accesses
system.cpu.dtb_walker_cache.pwrStateResidencyTicks::UNDEFINED  92245883500                       # Cumulative time (in ticks) in various power states
system.cpu.dtb_walker_cache.blocked_cycles::no_mshrs            0                       # number of cycles access was blocked
system.cpu.dtb_walker_cache.blocked_cycles::no_targets            0                       # number of cycles access was blocked
system.cpu.dtb_walker_cache.blocked::no_mshrs            0                       # number of cycles access was blocked
system.cpu.dtb_walker_cache.blocked::no_targets            0                       # number of cycles access was blocked
system.cpu.dtb_walker_cache.avg_blocked_cycles::no_mshrs          nan                       # average number of cycles each access was blocked
system.cpu.dtb_walker_cache.avg_blocked_cycles::no_targets          nan                       # average number of cycles each access was blocked
system.cpu.dtb_walker_cache.replacements            0                       # number of replacements
system.cpu.icache.tags.pwrStateResidencyTicks::UNDEFINED  92245883500                       # Cumulative time (in ticks) in various power states
system.cpu.icache.tags.tagsinuse           280.267275                       # Cycle average of tags in use
system.cpu.icache.tags.total_refs            59916890                       # Total number of references to valid blocks.
system.cpu.icache.tags.sampled_refs               355                       # Sample count of references to valid blocks.
system.cpu.icache.tags.avg_refs          168779.971831                       # Average number of references to valid blocks.
system.cpu.icache.tags.warmup_cycle            445500                       # Cycle when the warmup percentage was hit.
system.cpu.icache.tags.occ_blocks::cpu.inst   280.267275                       # Average occupied blocks per requestor
system.cpu.icache.tags.occ_percent::cpu.inst     0.547397                       # Average percentage of cache occupancy
system.cpu.icache.tags.occ_percent::total     0.547397                       # Average percentage of cache occupancy
system.cpu.icache.tags.occ_task_id_blocks::1024          309                       # Occupied blocks per task id
system.cpu.icache.tags.age_task_id_blocks_1024::0           22                       # Occupied blocks per task id
system.cpu.icache.tags.age_task_id_blocks_1024::1           16                       # Occupied blocks per task id
system.cpu.icache.tags.age_task_id_blocks_1024::4          271                       # Occupied blocks per task id
system.cpu.icache.tags.occ_task_id_percent::1024     0.603516                       # Percentage of cache occupancy per task id
system.cpu.icache.tags.tag_accesses         119834135                       # Number of tag accesses
system.cpu.icache.tags.data_accesses        119834135                       # Number of data accesses
system.cpu.icache.pwrStateResidencyTicks::UNDEFINED  92245883500                       # Cumulative time (in ticks) in various power states
system.cpu.icache.ReadReq_hits::cpu.inst     59916535                       # number of ReadReq hits
system.cpu.icache.ReadReq_hits::total        59916535                       # number of ReadReq hits
system.cpu.icache.demand_hits::cpu.inst      59916535                       # number of demand (read+write) hits
system.cpu.icache.demand_hits::total         59916535                       # number of demand (read+write) hits
system.cpu.icache.overall_hits::cpu.inst     59916535                       # number of overall hits
system.cpu.icache.overall_hits::total        59916535                       # number of overall hits
system.cpu.icache.ReadReq_misses::cpu.inst          355                       # number of ReadReq misses
system.cpu.icache.ReadReq_misses::total           355                       # number of ReadReq misses
system.cpu.icache.demand_misses::cpu.inst          355                       # number of demand (read+write) misses
system.cpu.icache.demand_misses::total            355                       # number of demand (read+write) misses
system.cpu.icache.overall_misses::cpu.inst          355                       # number of overall misses
system.cpu.icache.overall_misses::total           355                       # number of overall misses
system.cpu.icache.ReadReq_miss_latency::cpu.inst     66304000                       # number of ReadReq miss cycles
system.cpu.icache.ReadReq_miss_latency::total     66304000                       # number of ReadReq miss cycles
system.cpu.icache.demand_miss_latency::cpu.inst     66304000                       # number of demand (read+write) miss cycles
system.cpu.icache.demand_miss_latency::total     66304000                       # number of demand (read+write) miss cycles
system.cpu.icache.overall_miss_latency::cpu.inst     66304000                       # number of overall miss cycles
system.cpu.icache.overall_miss_latency::total     66304000                       # number of overall miss cycles
system.cpu.icache.ReadReq_accesses::cpu.inst     59916890                       # number of ReadReq accesses(hits+misses)
system.cpu.icache.ReadReq_accesses::total     59916890                       # number of ReadReq accesses(hits+misses)
system.cpu.icache.demand_accesses::cpu.inst     59916890                       # number of demand (read+write) accesses
system.cpu.icache.demand_accesses::total     59916890                       # number of demand (read+write) accesses
system.cpu.icache.overall_accesses::cpu.inst     59916890                       # number of overall (read+write) accesses
system.cpu.icache.overall_accesses::total     59916890                       # number of overall (read+write) accesses
system.cpu.icache.ReadReq_miss_rate::cpu.inst     0.000006                       # miss rate for ReadReq accesses
system.cpu.icache.ReadReq_miss_rate::total     0.000006                       # miss rate for ReadReq accesses
system.cpu.icache.demand_miss_rate::cpu.inst     0.000006                       # miss rate for demand accesses
system.cpu.icache.demand_miss_rate::total     0.000006                       # miss rate for demand accesses
system.cpu.icache.overall_miss_rate::cpu.inst     0.000006                       # miss rate for overall accesses
system.cpu.icache.overall_miss_rate::total     0.000006                       # miss rate for overall accesses
system.cpu.icache.ReadReq_avg_miss_latency::cpu.inst 186771.830986                       # average ReadReq miss latency
system.cpu.icache.ReadReq_avg_miss_latency::total 186771.830986                       # average ReadReq miss latency
system.cpu.icache.demand_avg_miss_latency::cpu.inst 186771.830986                       # average overall miss latency
system.cpu.icache.demand_avg_miss_latency::total 186771.830986                       # average overall miss latency
system.cpu.icache.overall_avg_miss_latency::cpu.inst 186771.830986                       # average overall miss latency
system.cpu.icache.overall_avg_miss_latency::total 186771.830986                       # average overall miss latency
system.cpu.icache.blocked_cycles::no_mshrs            0                       # number of cycles access was blocked
system.cpu.icache.blocked_cycles::no_targets            0                       # number of cycles access was blocked
system.cpu.icache.blocked::no_mshrs                 0                       # number of cycles access was blocked
system.cpu.icache.blocked::no_targets               0                       # number of cycles access was blocked
system.cpu.icache.avg_blocked_cycles::no_mshrs          nan                       # average number of cycles each access was blocked
system.cpu.icache.avg_blocked_cycles::no_targets          nan                       # average number of cycles each access was blocked
system.cpu.icache.writebacks::writebacks           46                       # number of writebacks
system.cpu.icache.writebacks::total                46                       # number of writebacks
system.cpu.icache.ReadReq_mshr_misses::cpu.inst          355                       # number of ReadReq MSHR misses
system.cpu.icache.ReadReq_mshr_misses::total          355                       # number of ReadReq MSHR misses
system.cpu.icache.demand_mshr_misses::cpu.inst          355                       # number of demand (read+write) MSHR misses
system.cpu.icache.demand_mshr_misses::total          355                       # number of demand (read+write) MSHR misses
system.cpu.icache.overall_mshr_misses::cpu.inst          355                       # number of overall MSHR misses
system.cpu.icache.overall_mshr_misses::total          355                       # number of overall MSHR misses
system.cpu.icache.ReadReq_mshr_miss_latency::cpu.inst     65949000                       # number of ReadReq MSHR miss cycles
system.cpu.icache.ReadReq_mshr_miss_latency::total     65949000                       # number of ReadReq MSHR miss cycles
system.cpu.icache.demand_mshr_miss_latency::cpu.inst     65949000                       # number of demand (read+write) MSHR miss cycles
system.cpu.icache.demand_mshr_miss_latency::total     65949000                       # number of demand (read+write) MSHR miss cycles
system.cpu.icache.overall_mshr_miss_latency::cpu.inst     65949000                       # number of overall MSHR miss cycles
system.cpu.icache.overall_mshr_miss_latency::total     65949000                       # number of overall MSHR miss cycles
system.cpu.icache.ReadReq_mshr_miss_rate::cpu.inst     0.000006                       # mshr miss rate for ReadReq accesses
system.cpu.icache.ReadReq_mshr_miss_rate::total     0.000006                       # mshr miss rate for ReadReq accesses
system.cpu.icache.demand_mshr_miss_rate::cpu.inst     0.000006                       # mshr miss rate for demand accesses
system.cpu.icache.demand_mshr_miss_rate::total     0.000006                       # mshr miss rate for demand accesses
system.cpu.icache.overall_mshr_miss_rate::cpu.inst     0.000006                       # mshr miss rate for overall accesses
system.cpu.icache.overall_mshr_miss_rate::total     0.000006                       # mshr miss rate for overall accesses
system.cpu.icache.ReadReq_avg_mshr_miss_latency::cpu.inst 185771.830986                       # average ReadReq mshr miss latency
system.cpu.icache.ReadReq_avg_mshr_miss_latency::total 185771.830986                       # average ReadReq mshr miss latency
system.cpu.icache.demand_avg_mshr_miss_latency::cpu.inst 185771.830986                       # average overall mshr miss latency
system.cpu.icache.demand_avg_mshr_miss_latency::total 185771.830986                       # average overall mshr miss latency
system.cpu.icache.overall_avg_mshr_miss_latency::cpu.inst 185771.830986                       # average overall mshr miss latency
system.cpu.icache.overall_avg_mshr_miss_latency::total 185771.830986                       # average overall mshr miss latency
system.cpu.icache.replacements                     46                       # number of replacements
system.cpu.itb_walker_cache.tags.pwrStateResidencyTicks::UNDEFINED  92245883500                       # Cumulative time (in ticks) in various power states
system.cpu.itb_walker_cache.tags.tagsinuse            0                       # Cycle average of tags in use
system.cpu.itb_walker_cache.tags.total_refs            0                       # Total number of references to valid blocks.
system.cpu.itb_walker_cache.tags.sampled_refs            0                       # Sample count of references to valid blocks.
system.cpu.itb_walker_cache.tags.avg_refs          nan                       # Average number of references to valid blocks.
system.cpu.itb_walker_cache.tags.warmup_cycle            0                       # Cycle when the warmup percentage was hit.
system.cpu.itb_walker_cache.tags.tag_accesses            0                       # Number of tag accesses
system.cpu.itb_walker_cache.tags.data_accesses            0                       # Number of data accesses
system.cpu.itb_walker_cache.pwrStateResidencyTicks::UNDEFINED  92245883500                       # Cumulative time (in ticks) in various power states
system.cpu.itb_walker_cache.blocked_cycles::no_mshrs            0                       # number of cycles access was blocked
system.cpu.itb_walker_cache.blocked_cycles::no_targets            0                       # number of cycles access was blocked
system.cpu.itb_walker_cache.blocked::no_mshrs            0                       # number of cycles access was blocked
system.cpu.itb_walker_cache.blocked::no_targets            0                       # number of cycles access was blocked
system.cpu.itb_walker_cache.avg_blocked_cycles::no_mshrs          nan                       # average number of cycles each access was blocked
system.cpu.itb_walker_cache.avg_blocked_cycles::no_targets          nan                       # average number of cycles each access was blocked
system.cpu.itb_walker_cache.replacements            0                       # number of replacements
system.l2.tags.pwrStateResidencyTicks::UNDEFINED  92245883500                       # Cumulative time (in ticks) in various power states
system.l2.tags.tagsinuse                  2019.288387                       # Cycle average of tags in use
system.l2.tags.total_refs                       97977                       # Total number of references to valid blocks.
system.l2.tags.sampled_refs                     24189                       # Sample count of references to valid blocks.
system.l2.tags.avg_refs                      4.050477                       # Average number of references to valid blocks.
system.l2.tags.warmup_cycle                    435000                       # Cycle when the warmup percentage was hit.
system.l2.tags.occ_blocks::writebacks        1.520076                       # Average occupied blocks per requestor
system.l2.tags.occ_blocks::cpu.inst         11.095615                       # Average occupied blocks per requestor
system.l2.tags.occ_blocks::cpu.data       2006.672696                       # Average occupied blocks per requestor
system.l2.tags.occ_percent::writebacks       0.000742                       # Average percentage of cache occupancy
system.l2.tags.occ_percent::cpu.inst         0.005418                       # Average percentage of cache occupancy
system.l2.tags.occ_percent::cpu.data         0.979821                       # Average percentage of cache occupancy
system.l2.tags.occ_percent::total            0.985981                       # Average percentage of cache occupancy
system.l2.tags.occ_task_id_blocks::1024          2048                       # Occupied blocks per task id
system.l2.tags.age_task_id_blocks_1024::0           39                       # Occupied blocks per task id
system.l2.tags.age_task_id_blocks_1024::1           35                       # Occupied blocks per task id
system.l2.tags.age_task_id_blocks_1024::2           33                       # Occupied blocks per task id
system.l2.tags.age_task_id_blocks_1024::3           58                       # Occupied blocks per task id
system.l2.tags.age_task_id_blocks_1024::4         1883                       # Occupied blocks per task id
system.l2.tags.occ_task_id_percent::1024            1                       # Percentage of cache occupancy per task id
system.l2.tags.tag_accesses                    808005                       # Number of tag accesses
system.l2.tags.data_accesses                   808005                       # Number of data accesses
system.l2.pwrStateResidencyTicks::UNDEFINED  92245883500                       # Cumulative time (in ticks) in various power states
system.l2.WritebackDirty_hits::writebacks        43369                       # number of WritebackDirty hits
system.l2.WritebackDirty_hits::total            43369                       # number of WritebackDirty hits
system.l2.WritebackClean_hits::writebacks           46                       # number of WritebackClean hits
system.l2.WritebackClean_hits::total               46                       # number of WritebackClean hits
system.l2.UpgradeReq_hits::cpu.data              7280                       # number of UpgradeReq hits
system.l2.UpgradeReq_hits::total                 7280                       # number of UpgradeReq hits
system.l2.ReadExReq_hits::cpu.data                249                       # number of ReadExReq hits
system.l2.ReadExReq_hits::total                   249                       # number of ReadExReq hits
system.l2.ReadSharedReq_hits::cpu.data          21345                       # number of ReadSharedReq hits
system.l2.ReadSharedReq_hits::total             21345                       # number of ReadSharedReq hits
system.l2.demand_hits::cpu.data                 21594                       # number of demand (read+write) hits
system.l2.demand_hits::total                    21594                       # number of demand (read+write) hits
system.l2.overall_hits::cpu.data                21594                       # number of overall hits
system.l2.overall_hits::total                   21594                       # number of overall hits
system.l2.ReadExReq_misses::cpu.data             6441                       # number of ReadExReq misses
system.l2.ReadExReq_misses::total                6441                       # number of ReadExReq misses
system.l2.ReadCleanReq_misses::cpu.inst           355                       # number of ReadCleanReq misses
system.l2.ReadCleanReq_misses::total              355                       # number of ReadCleanReq misses
system.l2.ReadSharedReq_misses::cpu.data        17369                       # number of ReadSharedReq misses
system.l2.ReadSharedReq_misses::total           17369                       # number of ReadSharedReq misses
system.l2.demand_misses::cpu.inst                 355                       # number of demand (read+write) misses
system.l2.demand_misses::cpu.data               23810                       # number of demand (read+write) misses
system.l2.demand_misses::total                  24165                       # number of demand (read+write) misses
system.l2.overall_misses::cpu.inst                355                       # number of overall misses
system.l2.overall_misses::cpu.data              23810                       # number of overall misses
system.l2.overall_misses::total                 24165                       # number of overall misses
system.l2.ReadExReq_miss_latency::cpu.data   1319449500                       # number of ReadExReq miss cycles
system.l2.ReadExReq_miss_latency::total    1319449500                       # number of ReadExReq miss cycles
system.l2.ReadCleanReq_miss_latency::cpu.inst     65415000                       # number of ReadCleanReq miss cycles
system.l2.ReadCleanReq_miss_latency::total     65415000                       # number of ReadCleanReq miss cycles
system.l2.ReadSharedReq_miss_latency::cpu.data   3867122000                       # number of ReadSharedReq miss cycles
system.l2.ReadSharedReq_miss_latency::total   3867122000                       # number of ReadSharedReq miss cycles
system.l2.demand_miss_latency::cpu.inst      65415000                       # number of demand (read+write) miss cycles
system.l2.demand_miss_latency::cpu.data    5186571500                       # number of demand (read+write) miss cycles
system.l2.demand_miss_latency::total       5251986500                       # number of demand (read+write) miss cycles
system.l2.overall_miss_latency::cpu.inst     65415000                       # number of overall miss cycles
system.l2.overall_miss_latency::cpu.data   5186571500                       # number of overall miss cycles
system.l2.overall_miss_latency::total      5251986500                       # number of overall miss cycles
system.l2.WritebackDirty_accesses::writebacks        43369                       # number of WritebackDirty accesses(hits+misses)
system.l2.WritebackDirty_accesses::total        43369                       # number of WritebackDirty accesses(hits+misses)
system.l2.WritebackClean_accesses::writebacks           46                       # number of WritebackClean accesses(hits+misses)
system.l2.WritebackClean_accesses::total           46                       # number of WritebackClean accesses(hits+misses)
system.l2.UpgradeReq_accesses::cpu.data          7280                       # number of UpgradeReq accesses(hits+misses)
system.l2.UpgradeReq_accesses::total             7280                       # number of UpgradeReq accesses(hits+misses)
system.l2.ReadExReq_accesses::cpu.data           6690                       # number of ReadExReq accesses(hits+misses)
system.l2.ReadExReq_accesses::total              6690                       # number of ReadExReq accesses(hits+misses)
system.l2.ReadCleanReq_accesses::cpu.inst          355                       # number of ReadCleanReq accesses(hits+misses)
system.l2.ReadCleanReq_accesses::total            355                       # number of ReadCleanReq accesses(hits+misses)
system.l2.ReadSharedReq_accesses::cpu.data        38714                       # number of ReadSharedReq accesses(hits+misses)
system.l2.ReadSharedReq_accesses::total         38714                       # number of ReadSharedReq accesses(hits+misses)
system.l2.demand_accesses::cpu.inst               355                       # number of demand (read+write) accesses
system.l2.demand_accesses::cpu.data             45404                       # number of demand (read+write) accesses
system.l2.demand_accesses::total                45759                       # number of demand (read+write) accesses
system.l2.overall_accesses::cpu.inst              355                       # number of overall (read+write) accesses
system.l2.overall_accesses::cpu.data            45404                       # number of overall (read+write) accesses
system.l2.overall_accesses::total               45759                       # number of overall (read+write) accesses
system.l2.ReadExReq_miss_rate::cpu.data      0.962780                       # miss rate for ReadExReq accesses
system.l2.ReadExReq_miss_rate::total         0.962780                       # miss rate for ReadExReq accesses
system.l2.ReadCleanReq_miss_rate::cpu.inst            1                       # miss rate for ReadCleanReq accesses
system.l2.ReadCleanReq_miss_rate::total             1                       # miss rate for ReadCleanReq accesses
system.l2.ReadSharedReq_miss_rate::cpu.data     0.448649                       # miss rate for ReadSharedReq accesses
system.l2.ReadSharedReq_miss_rate::total     0.448649                       # miss rate for ReadSharedReq accesses
system.l2.demand_miss_rate::cpu.inst                1                       # miss rate for demand accesses
system.l2.demand_miss_rate::cpu.data         0.524403                       # miss rate for demand accesses
system.l2.demand_miss_rate::total            0.528093                       # miss rate for demand accesses
system.l2.overall_miss_rate::cpu.inst               1                       # miss rate for overall accesses
system.l2.overall_miss_rate::cpu.data        0.524403                       # miss rate for overall accesses
system.l2.overall_miss_rate::total           0.528093                       # miss rate for overall accesses
system.l2.ReadExReq_avg_miss_latency::cpu.data 204851.653470                       # average ReadExReq miss latency
system.l2.ReadExReq_avg_miss_latency::total 204851.653470                       # average ReadExReq miss latency
system.l2.ReadCleanReq_avg_miss_latency::cpu.inst 184267.605634                       # average ReadCleanReq miss latency
system.l2.ReadCleanReq_avg_miss_latency::total 184267.605634                       # average ReadCleanReq miss latency
system.l2.ReadSharedReq_avg_miss_latency::cpu.data 222645.057286                       # average ReadSharedReq miss latency
system.l2.ReadSharedReq_avg_miss_latency::total 222645.057286                       # average ReadSharedReq miss latency
system.l2.demand_avg_miss_latency::cpu.inst 184267.605634                       # average overall miss latency
system.l2.demand_avg_miss_latency::cpu.data 217831.646367                       # average overall miss latency
system.l2.demand_avg_miss_latency::total 217338.568177                       # average overall miss latency
system.l2.overall_avg_miss_latency::cpu.inst 184267.605634                       # average overall miss latency
system.l2.overall_avg_miss_latency::cpu.data 217831.646367                       # average overall miss latency
system.l2.overall_avg_miss_latency::total 217338.568177                       # average overall miss latency
system.l2.blocked_cycles::no_mshrs                  0                       # number of cycles access was blocked
system.l2.blocked_cycles::no_targets                0                       # number of cycles access was blocked
system.l2.blocked::no_mshrs                         0                       # number of cycles access was blocked
system.l2.blocked::no_targets                       0                       # number of cycles access was blocked
system.l2.avg_blocked_cycles::no_mshrs            nan                       # average number of cycles each access was blocked
system.l2.avg_blocked_cycles::no_targets          nan                       # average number of cycles each access was blocked
system.l2.writebacks::writebacks                21682                       # number of writebacks
system.l2.writebacks::total                     21682                       # number of writebacks
system.l2.ReadExReq_mshr_misses::cpu.data         6441                       # number of ReadExReq MSHR misses
system.l2.ReadExReq_mshr_misses::total           6441                       # number of ReadExReq MSHR misses
system.l2.ReadCleanReq_mshr_misses::cpu.inst          355                       # number of ReadCleanReq MSHR misses
system.l2.ReadCleanReq_mshr_misses::total          355                       # number of ReadCleanReq MSHR misses
system.l2.ReadSharedReq_mshr_misses::cpu.data        17369                       # number of ReadSharedReq MSHR misses
system.l2.ReadSharedReq_mshr_misses::total        17369                       # number of ReadSharedReq MSHR misses
system.l2.demand_mshr_misses::cpu.inst            355                       # number of demand (read+write) MSHR misses
system.l2.demand_mshr_misses::cpu.data          23810                       # number of demand (read+write) MSHR misses
system.l2.demand_mshr_misses::total             24165                       # number of demand (read+write) MSHR misses
system.l2.overall_mshr_misses::cpu.inst           355                       # number of overall MSHR misses
system.l2.overall_mshr_misses::cpu.data         23810                       # number of overall MSHR misses
system.l2.overall_mshr_misses::total            24165                       # number of overall MSHR misses
system.l2.ReadExReq_mshr_miss_latency::cpu.data   1255039500                       # number of ReadExReq MSHR miss cycles
system.l2.ReadExReq_mshr_miss_latency::total   1255039500                       # number of ReadExReq MSHR miss cycles
system.l2.ReadCleanReq_mshr_miss_latency::cpu.inst     61865000                       # number of ReadCleanReq MSHR miss cycles
system.l2.ReadCleanReq_mshr_miss_latency::total     61865000                       # number of ReadCleanReq MSHR miss cycles
system.l2.ReadSharedReq_mshr_miss_latency::cpu.data   3693432000                       # number of ReadSharedReq MSHR miss cycles
system.l2.ReadSharedReq_mshr_miss_latency::total   3693432000                       # number of ReadSharedReq MSHR miss cycles
system.l2.demand_mshr_miss_latency::cpu.inst     61865000                       # number of demand (read+write) MSHR miss cycles
system.l2.demand_mshr_miss_latency::cpu.data   4948471500                       # number of demand (read+write) MSHR miss cycles
system.l2.demand_mshr_miss_latency::total   5010336500                       # number of demand (read+write) MSHR miss cycles
system.l2.overall_mshr_miss_latency::cpu.inst     61865000                       # number of overall MSHR miss cycles
system.l2.overall_mshr_miss_latency::cpu.data   4948471500                       # number of overall MSHR miss cycles
system.l2.overall_mshr_miss_latency::total   5010336500                       # number of overall MSHR miss cycles
system.l2.ReadExReq_mshr_miss_rate::cpu.data     0.962780                       # mshr miss rate for ReadExReq accesses
system.l2.ReadExReq_mshr_miss_rate::total     0.962780                       # mshr miss rate for ReadExReq accesses
system.l2.ReadCleanReq_mshr_miss_rate::cpu.inst            1                       # mshr miss rate for ReadCleanReq accesses
system.l2.ReadCleanReq_mshr_miss_rate::total            1                       # mshr miss rate for ReadCleanReq accesses
system.l2.ReadSharedReq_mshr_miss_rate::cpu.data     0.448649                       # mshr miss rate for ReadSharedReq accesses
system.l2.ReadSharedReq_mshr_miss_rate::total     0.448649                       # mshr miss rate for ReadSharedReq accesses
system.l2.demand_mshr_miss_rate::cpu.inst            1                       # mshr miss rate for demand accesses
system.l2.demand_mshr_miss_rate::cpu.data     0.524403                       # mshr miss rate for demand accesses
system.l2.demand_mshr_miss_rate::total       0.528093                       # mshr miss rate for demand accesses
system.l2.overall_mshr_miss_rate::cpu.inst            1                       # mshr miss rate for overall accesses
system.l2.overall_mshr_miss_rate::cpu.data     0.524403                       # mshr miss rate for overall accesses
system.l2.overall_mshr_miss_rate::total      0.528093                       # mshr miss rate for overall accesses
system.l2.ReadExReq_avg_mshr_miss_latency::cpu.data 194851.653470                       # average ReadExReq mshr miss latency
system.l2.ReadExReq_avg_mshr_miss_latency::total 194851.653470                       # average ReadExReq mshr miss latency
system.l2.ReadCleanReq_avg_mshr_miss_latency::cpu.inst 174267.605634                       # average ReadCleanReq mshr miss latency
system.l2.ReadCleanReq_avg_mshr_miss_latency::total 174267.605634                       # average ReadCleanReq mshr miss latency
system.l2.ReadSharedReq_avg_mshr_miss_latency::cpu.data 212645.057286                       # average ReadSharedReq mshr miss latency
system.l2.ReadSharedReq_avg_mshr_miss_latency::total 212645.057286                       # average ReadSharedReq mshr miss latency
system.l2.demand_avg_mshr_miss_latency::cpu.inst 174267.605634                       # average overall mshr miss latency
system.l2.demand_avg_mshr_miss_latency::cpu.data 207831.646367                       # average overall mshr miss latency
system.l2.demand_avg_mshr_miss_latency::total 207338.568177                       # average overall mshr miss latency
system.l2.overall_avg_mshr_miss_latency::cpu.inst 174267.605634                       # average overall mshr miss latency
system.l2.overall_avg_mshr_miss_latency::cpu.data 207831.646367                       # average overall mshr miss latency
system.l2.overall_avg_mshr_miss_latency::total 207338.568177                       # average overall mshr miss latency
system.l2.replacements                          22141                       # number of replacements
system.l3.tags.pwrStateResidencyTicks::UNDEFINED  92245883500                       # Cumulative time (in ticks) in various power states
system.l3.tags.tagsinuse                  3935.575448                       # Cycle average of tags in use
system.l3.tags.total_refs                       45978                       # Total number of references to valid blocks.
system.l3.tags.sampled_refs                     21230                       # Sample count of references to valid blocks.
system.l3.tags.avg_refs                      2.165709                       # Average number of references to valid blocks.
system.l3.tags.warmup_cycle                    418000                       # Cycle when the warmup percentage was hit.
system.l3.tags.occ_blocks::writebacks      403.875568                       # Average occupied blocks per requestor
system.l3.tags.occ_blocks::cpu.inst         18.249886                       # Average occupied blocks per requestor
system.l3.tags.occ_blocks::cpu.data       3513.449994                       # Average occupied blocks per requestor
system.l3.tags.occ_percent::writebacks       0.098602                       # Average percentage of cache occupancy
system.l3.tags.occ_percent::cpu.inst         0.004456                       # Average percentage of cache occupancy
system.l3.tags.occ_percent::cpu.data         0.857776                       # Average percentage of cache occupancy
system.l3.tags.occ_percent::total            0.960834                       # Average percentage of cache occupancy
system.l3.tags.occ_task_id_blocks::1024          4096                       # Occupied blocks per task id
system.l3.tags.age_task_id_blocks_1024::0           33                       # Occupied blocks per task id
system.l3.tags.age_task_id_blocks_1024::1           30                       # Occupied blocks per task id
system.l3.tags.age_task_id_blocks_1024::3            4                       # Occupied blocks per task id
system.l3.tags.age_task_id_blocks_1024::4         4029                       # Occupied blocks per task id
system.l3.tags.occ_task_id_percent::1024            1                       # Percentage of cache occupancy per task id
system.l3.tags.tag_accesses                    113252                       # Number of tag accesses
system.l3.tags.data_accesses                   113252                       # Number of data accesses
system.l3.pwrStateResidencyTicks::UNDEFINED  92245883500                       # Cumulative time (in ticks) in various power states
system.l3.WritebackDirty_hits::writebacks        21682                       # number of WritebackDirty hits
system.l3.WritebackDirty_hits::total            21682                       # number of WritebackDirty hits
system.l3.ReadExReq_hits::cpu.data                 36                       # number of ReadExReq hits
system.l3.ReadExReq_hits::total                    36                       # number of ReadExReq hits
system.l3.ReadSharedReq_hits::cpu.data           8333                       # number of ReadSharedReq hits
system.l3.ReadSharedReq_hits::total              8333                       # number of ReadSharedReq hits
system.l3.demand_hits::cpu.data                  8369                       # number of demand (read+write) hits
system.l3.demand_hits::total                     8369                       # number of demand (read+write) hits
system.l3.overall_hits::cpu.data                 8369                       # number of overall hits
system.l3.overall_hits::total                    8369                       # number of overall hits
system.l3.ReadExReq_misses::cpu.data             6405                       # number of ReadExReq misses
system.l3.ReadExReq_misses::total                6405                       # number of ReadExReq misses
system.l3.ReadSharedReq_misses::cpu.inst          355                       # number of ReadSharedReq misses
system.l3.ReadSharedReq_misses::cpu.data         9036                       # number of ReadSharedReq misses
system.l3.ReadSharedReq_misses::total            9391                       # number of ReadSharedReq misses
system.l3.demand_misses::cpu.inst                 355                       # number of demand (read+write) misses
system.l3.demand_misses::cpu.data               15441                       # number of demand (read+write) misses
system.l3.demand_misses::total                  15796                       # number of demand (read+write) misses
system.l3.overall_misses::cpu.inst                355                       # number of overall misses
system.l3.overall_misses::cpu.data              15441                       # number of overall misses
system.l3.overall_misses::total                 15796                       # number of overall misses
system.l3.ReadExReq_miss_latency::cpu.data   1180338000                       # number of ReadExReq miss cycles
system.l3.ReadExReq_miss_latency::total    1180338000                       # number of ReadExReq miss cycles
system.l3.ReadSharedReq_miss_latency::cpu.inst     57782500                       # number of ReadSharedReq miss cycles
system.l3.ReadSharedReq_miss_latency::cpu.data   3347861000                       # number of ReadSharedReq miss cycles
system.l3.ReadSharedReq_miss_latency::total   3405643500                       # number of ReadSharedReq miss cycles
system.l3.demand_miss_latency::cpu.inst      57782500                       # number of demand (read+write) miss cycles
system.l3.demand_miss_latency::cpu.data    4528199000                       # number of demand (read+write) miss cycles
system.l3.demand_miss_latency::total       4585981500                       # number of demand (read+write) miss cycles
system.l3.overall_miss_latency::cpu.inst     57782500                       # number of overall miss cycles
system.l3.overall_miss_latency::cpu.data   4528199000                       # number of overall miss cycles
system.l3.overall_miss_latency::total      4585981500                       # number of overall miss cycles
system.l3.WritebackDirty_accesses::writebacks        21682                       # number of WritebackDirty accesses(hits+misses)
system.l3.WritebackDirty_accesses::total        21682                       # number of WritebackDirty accesses(hits+misses)
system.l3.ReadExReq_accesses::cpu.data           6441                       # number of ReadExReq accesses(hits+misses)
system.l3.ReadExReq_accesses::total              6441                       # number of ReadExReq accesses(hits+misses)
system.l3.ReadSharedReq_accesses::cpu.inst          355                       # number of ReadSharedReq accesses(hits+misses)
system.l3.ReadSharedReq_accesses::cpu.data        17369                       # number of ReadSharedReq accesses(hits+misses)
system.l3.ReadSharedReq_accesses::total         17724                       # number of ReadSharedReq accesses(hits+misses)
system.l3.demand_accesses::cpu.inst               355                       # number of demand (read+write) accesses
system.l3.demand_accesses::cpu.data             23810                       # number of demand (read+write) accesses
system.l3.demand_accesses::total                24165                       # number of demand (read+write) accesses
system.l3.overall_accesses::cpu.inst              355                       # number of overall (read+write) accesses
system.l3.overall_accesses::cpu.data            23810                       # number of overall (read+write) accesses
system.l3.overall_accesses::total               24165                       # number of overall (read+write) accesses
system.l3.ReadExReq_miss_rate::cpu.data      0.994411                       # miss rate for ReadExReq accesses
system.l3.ReadExReq_miss_rate::total         0.994411                       # miss rate for ReadExReq accesses
system.l3.ReadSharedReq_miss_rate::cpu.inst            1                       # miss rate for ReadSharedReq accesses
system.l3.ReadSharedReq_miss_rate::cpu.data     0.520237                       # miss rate for ReadSharedReq accesses
system.l3.ReadSharedReq_miss_rate::total     0.529847                       # miss rate for ReadSharedReq accesses
system.l3.demand_miss_rate::cpu.inst                1                       # miss rate for demand accesses
system.l3.demand_miss_rate::cpu.data         0.648509                       # miss rate for demand accesses
system.l3.demand_miss_rate::total            0.653673                       # miss rate for demand accesses
system.l3.overall_miss_rate::cpu.inst               1                       # miss rate for overall accesses
system.l3.overall_miss_rate::cpu.data        0.648509                       # miss rate for overall accesses
system.l3.overall_miss_rate::total           0.653673                       # miss rate for overall accesses
system.l3.ReadExReq_avg_miss_latency::cpu.data 184283.840749                       # average ReadExReq miss latency
system.l3.ReadExReq_avg_miss_latency::total 184283.840749                       # average ReadExReq miss latency
system.l3.ReadSharedReq_avg_miss_latency::cpu.inst 162767.605634                       # average ReadSharedReq miss latency
system.l3.ReadSharedReq_avg_miss_latency::cpu.data 370502.545374                       # average ReadSharedReq miss latency
system.l3.ReadSharedReq_avg_miss_latency::total 362649.717815                       # average ReadSharedReq miss latency
system.l3.demand_avg_miss_latency::cpu.inst 162767.605634                       # average overall miss latency
system.l3.demand_avg_miss_latency::cpu.data 293258.143903                       # average overall miss latency
system.l3.demand_avg_miss_latency::total 290325.493796                       # average overall miss latency
system.l3.overall_avg_miss_latency::cpu.inst 162767.605634                       # average overall miss latency
system.l3.overall_avg_miss_latency::cpu.data 293258.143903                       # average overall miss latency
system.l3.overall_avg_miss_latency::total 290325.493796                       # average overall miss latency
system.l3.blocked_cycles::no_mshrs                  0                       # number of cycles access was blocked
system.l3.blocked_cycles::no_targets                0                       # number of cycles access was blocked
system.l3.blocked::no_mshrs                         0                       # number of cycles access was blocked
system.l3.blocked::no_targets                       0                       # number of cycles access was blocked
system.l3.avg_blocked_cycles::no_mshrs            nan                       # average number of cycles each access was blocked
system.l3.avg_blocked_cycles::no_targets          nan                       # average number of cycles each access was blocked
system.l3.writebacks::writebacks                11278                       # number of writebacks
system.l3.writebacks::total                     11278                       # number of writebacks
system.l3.CleanEvict_mshr_misses::writebacks           33                       # number of CleanEvict MSHR misses
system.l3.CleanEvict_mshr_misses::total            33                       # number of CleanEvict MSHR misses
system.l3.ReadExReq_mshr_misses::cpu.data         6405                       # number of ReadExReq MSHR misses
system.l3.ReadExReq_mshr_misses::total           6405                       # number of ReadExReq MSHR misses
system.l3.ReadSharedReq_mshr_misses::cpu.inst          355                       # number of ReadSharedReq MSHR misses
system.l3.ReadSharedReq_mshr_misses::cpu.data         9036                       # number of ReadSharedReq MSHR misses
system.l3.ReadSharedReq_mshr_misses::total         9391                       # number of ReadSharedReq MSHR misses
system.l3.demand_mshr_misses::cpu.inst            355                       # number of demand (read+write) MSHR misses
system.l3.demand_mshr_misses::cpu.data          15441                       # number of demand (read+write) MSHR misses
system.l3.demand_mshr_misses::total             15796                       # number of demand (read+write) MSHR misses
system.l3.overall_mshr_misses::cpu.inst           355                       # number of overall MSHR misses
system.l3.overall_mshr_misses::cpu.data         15441                       # number of overall MSHR misses
system.l3.overall_mshr_misses::total            15796                       # number of overall MSHR misses
system.l3.ReadExReq_mshr_miss_latency::cpu.data   1077858000                       # number of ReadExReq MSHR miss cycles
system.l3.ReadExReq_mshr_miss_latency::total   1077858000                       # number of ReadExReq MSHR miss cycles
system.l3.ReadSharedReq_mshr_miss_latency::cpu.inst     52102500                       # number of ReadSharedReq MSHR miss cycles
system.l3.ReadSharedReq_mshr_miss_latency::cpu.data   3203285000                       # number of ReadSharedReq MSHR miss cycles
system.l3.ReadSharedReq_mshr_miss_latency::total   3255387500                       # number of ReadSharedReq MSHR miss cycles
system.l3.demand_mshr_miss_latency::cpu.inst     52102500                       # number of demand (read+write) MSHR miss cycles
system.l3.demand_mshr_miss_latency::cpu.data   4281143000                       # number of demand (read+write) MSHR miss cycles
system.l3.demand_mshr_miss_latency::total   4333245500                       # number of demand (read+write) MSHR miss cycles
system.l3.overall_mshr_miss_latency::cpu.inst     52102500                       # number of overall MSHR miss cycles
system.l3.overall_mshr_miss_latency::cpu.data   4281143000                       # number of overall MSHR miss cycles
system.l3.overall_mshr_miss_latency::total   4333245500                       # number of overall MSHR miss cycles
system.l3.CleanEvict_mshr_miss_rate::writebacks          inf                       # mshr miss rate for CleanEvict accesses
system.l3.CleanEvict_mshr_miss_rate::total          inf                       # mshr miss rate for CleanEvict accesses
system.l3.ReadExReq_mshr_miss_rate::cpu.data     0.994411                       # mshr miss rate for ReadExReq accesses
system.l3.ReadExReq_mshr_miss_rate::total     0.994411                       # mshr miss rate for ReadExReq accesses
system.l3.ReadSharedReq_mshr_miss_rate::cpu.inst            1                       # mshr miss rate for ReadSharedReq accesses
system.l3.ReadSharedReq_mshr_miss_rate::cpu.data     0.520237                       # mshr miss rate for ReadSharedReq accesses
system.l3.ReadSharedReq_mshr_miss_rate::total     0.529847                       # mshr miss rate for ReadSharedReq accesses
system.l3.demand_mshr_miss_rate::cpu.inst            1                       # mshr miss rate for demand accesses
system.l3.demand_mshr_miss_rate::cpu.data     0.648509                       # mshr miss rate for demand accesses
system.l3.demand_mshr_miss_rate::total       0.653673                       # mshr miss rate for demand accesses
system.l3.overall_mshr_miss_rate::cpu.inst            1                       # mshr miss rate for overall accesses
system.l3.overall_mshr_miss_rate::cpu.data     0.648509                       # mshr miss rate for overall accesses
system.l3.overall_mshr_miss_rate::total      0.653673                       # mshr miss rate for overall accesses
system.l3.ReadExReq_avg_mshr_miss_latency::cpu.data 168283.840749                       # average ReadExReq mshr miss latency
system.l3.ReadExReq_avg_mshr_miss_latency::total 168283.840749                       # average ReadExReq mshr miss latency
system.l3.ReadSharedReq_avg_mshr_miss_latency::cpu.inst 146767.605634                       # average ReadSharedReq mshr miss latency
system.l3.ReadSharedReq_avg_mshr_miss_latency::cpu.data 354502.545374                       # average ReadSharedReq mshr miss latency
system.l3.ReadSharedReq_avg_mshr_miss_latency::total 346649.717815                       # average ReadSharedReq mshr miss latency
system.l3.demand_avg_mshr_miss_latency::cpu.inst 146767.605634                       # average overall mshr miss latency
system.l3.demand_avg_mshr_miss_latency::cpu.data 277258.143903                       # average overall mshr miss latency
system.l3.demand_avg_mshr_miss_latency::total 274325.493796                       # average overall mshr miss latency
system.l3.overall_avg_mshr_miss_latency::cpu.inst 146767.605634                       # average overall mshr miss latency
system.l3.overall_avg_mshr_miss_latency::cpu.data 277258.143903                       # average overall mshr miss latency
system.l3.overall_avg_mshr_miss_latency::total 274325.493796                       # average overall mshr miss latency
system.l3.replacements                          17134                       # number of replacements
system.membus.snoop_filter.tot_requests         28801                       # Total number of requests made to the snoop filter.
system.membus.snoop_filter.hit_single_requests        13005                       # Number of requests hitting in the snoop filter with a single holder of the requested data.
system.membus.snoop_filter.hit_multi_requests            0                       # Number of requests hitting in the snoop filter with multiple (>1) holders of the requested data.
system.membus.snoop_filter.tot_snoops               0                       # Total number of snoops made to the snoop filter.
system.membus.snoop_filter.hit_single_snoops            0                       # Number of snoops hitting in the snoop filter with a single holder of the requested data.
system.membus.snoop_filter.hit_multi_snoops            0                       # Number of snoops hitting in the snoop filter with multiple (>1) holders of the requested data.
system.membus.pwrStateResidencyTicks::UNDEFINED  92245883500                       # Cumulative time (in ticks) in various power states
system.membus.trans_dist::ReadResp               9391                       # Transaction distribution
system.membus.trans_dist::WritebackDirty        11278                       # Transaction distribution
system.membus.trans_dist::CleanEvict              122                       # Transaction distribution
system.membus.trans_dist::ReadExReq              6405                       # Transaction distribution
system.membus.trans_dist::ReadExResp             6405                       # Transaction distribution
system.membus.trans_dist::ReadSharedReq          9391                       # Transaction distribution
system.membus.pkt_count_system.l3.mem_side::system.mem_ctrls.port        42992                       # Packet count per connected master and slave (bytes)
system.membus.pkt_count_system.l3.mem_side::total        42992                       # Packet count per connected master and slave (bytes)
system.membus.pkt_count::total                  42992                       # Packet count per connected master and slave (bytes)
system.membus.pkt_size_system.l3.mem_side::system.mem_ctrls.port      1732736                       # Cumulative packet size per connected master and slave (bytes)
system.membus.pkt_size_system.l3.mem_side::total      1732736                       # Cumulative packet size per connected master and slave (bytes)
system.membus.pkt_size::total                 1732736                       # Cumulative packet size per connected master and slave (bytes)
system.membus.snoops                                0                       # Total snoops (count)
system.membus.snoopTraffic                          0                       # Total snoop traffic (bytes)
system.membus.snoop_fanout::samples             15796                       # Request fanout histogram
system.membus.snoop_fanout::mean                    0                       # Request fanout histogram
system.membus.snoop_fanout::stdev                   0                       # Request fanout histogram
system.membus.snoop_fanout::underflows              0      0.00%      0.00% # Request fanout histogram
system.membus.snoop_fanout::0                   15796    100.00%    100.00% # Request fanout histogram
system.membus.snoop_fanout::1                       0      0.00%    100.00% # Request fanout histogram
system.membus.snoop_fanout::overflows               0      0.00%    100.00% # Request fanout histogram
system.membus.snoop_fanout::min_value               0                       # Request fanout histogram
system.membus.snoop_fanout::max_value               0                       # Request fanout histogram
system.membus.snoop_fanout::total               15796                       # Request fanout histogram
system.membus.reqLayer2.occupancy            83684500                       # Layer occupancy (ticks)
system.membus.reqLayer2.utilization               0.1                       # Layer utilization (%)
system.membus.respLayer1.occupancy           86259000                       # Layer occupancy (ticks)
system.membus.respLayer1.utilization              0.1                       # Layer utilization (%)
system.tol2bus.snoop_filter.tot_requests        97977                       # Total number of requests made to the snoop filter.
system.tol2bus.snoop_filter.hit_single_requests        52218                       # Number of requests hitting in the snoop filter with a single holder of the requested data.
system.tol2bus.snoop_filter.hit_multi_requests            0                       # Number of requests hitting in the snoop filter with multiple (>1) holders of the requested data.
system.tol2bus.snoop_filter.tot_snoops           1017                       # Total number of snoops made to the snoop filter.
system.tol2bus.snoop_filter.hit_single_snoops         1017                       # Number of snoops hitting in the snoop filter with a single holder of the requested data.
system.tol2bus.snoop_filter.hit_multi_snoops            0                       # Number of snoops hitting in the snoop filter with multiple (>1) holders of the requested data.
system.tol2bus.pwrStateResidencyTicks::UNDEFINED  92245883500                       # Cumulative time (in ticks) in various power states
system.tol2bus.trans_dist::ReadResp             39069                       # Transaction distribution
system.tol2bus.trans_dist::WritebackDirty        65051                       # Transaction distribution
system.tol2bus.trans_dist::WritebackClean           46                       # Transaction distribution
system.tol2bus.trans_dist::CleanEvict            7749                       # Transaction distribution
system.tol2bus.trans_dist::UpgradeReq            7280                       # Transaction distribution
system.tol2bus.trans_dist::UpgradeResp           7280                       # Transaction distribution
system.tol2bus.trans_dist::ReadExReq             6690                       # Transaction distribution
system.tol2bus.trans_dist::ReadExResp            6690                       # Transaction distribution
system.tol2bus.trans_dist::ReadCleanReq           355                       # Transaction distribution
system.tol2bus.trans_dist::ReadSharedReq        38714                       # Transaction distribution
system.tol2bus.pkt_count_system.cpu.icache.mem_side::system.l2.cpu_side          756                       # Packet count per connected master and slave (bytes)
system.tol2bus.pkt_count_system.cpu.dcache.mem_side::system.l2.cpu_side       150260                       # Packet count per connected master and slave (bytes)
system.tol2bus.pkt_count::total                151016                       # Packet count per connected master and slave (bytes)
system.tol2bus.pkt_size_system.cpu.icache.mem_side::system.l2.cpu_side        25664                       # Cumulative packet size per connected master and slave (bytes)
system.tol2bus.pkt_size_system.cpu.dcache.mem_side::system.l2.cpu_side      5681472                       # Cumulative packet size per connected master and slave (bytes)
system.tol2bus.pkt_size::total                5707136                       # Cumulative packet size per connected master and slave (bytes)
system.tol2bus.snoops                           27908                       # Total snoops (count)
system.tol2bus.snoopTraffic                   1387648                       # Total snoop traffic (bytes)
system.tol2bus.snoop_fanout::samples            80947                       # Request fanout histogram
system.tol2bus.snoop_fanout::mean            0.012564                       # Request fanout histogram
system.tol2bus.snoop_fanout::stdev           0.111383                       # Request fanout histogram
system.tol2bus.snoop_fanout::underflows             0      0.00%      0.00% # Request fanout histogram
system.tol2bus.snoop_fanout::0                  79930     98.74%     98.74% # Request fanout histogram
system.tol2bus.snoop_fanout::1                   1017      1.26%    100.00% # Request fanout histogram
system.tol2bus.snoop_fanout::2                      0      0.00%    100.00% # Request fanout histogram
system.tol2bus.snoop_fanout::3                      0      0.00%    100.00% # Request fanout histogram
system.tol2bus.snoop_fanout::4                      0      0.00%    100.00% # Request fanout histogram
system.tol2bus.snoop_fanout::overflows              0      0.00%    100.00% # Request fanout histogram
system.tol2bus.snoop_fanout::min_value              0                       # Request fanout histogram
system.tol2bus.snoop_fanout::max_value              1                       # Request fanout histogram
system.tol2bus.snoop_fanout::total              80947                       # Request fanout histogram
system.tol2bus.reqLayer0.occupancy           92403500                       # Layer occupancy (ticks)
system.tol2bus.reqLayer0.utilization              0.1                       # Layer utilization (%)
system.tol2bus.respLayer0.occupancy            532500                       # Layer occupancy (ticks)
system.tol2bus.respLayer0.utilization             0.0                       # Layer utilization (%)
system.tol2bus.respLayer1.occupancy          71746000                       # Layer occupancy (ticks)
system.tol2bus.respLayer1.utilization             0.1                       # Layer utilization (%)
system.tol3bus.snoop_filter.tot_requests        46011                       # Total number of requests made to the snoop filter.
system.tol3bus.snoop_filter.hit_single_requests        21846                       # Number of requests hitting in the snoop filter with a single holder of the requested data.
system.tol3bus.snoop_filter.hit_multi_requests            0                       # Number of requests hitting in the snoop filter with multiple (>1) holders of the requested data.
system.tol3bus.snoop_filter.tot_snoops           5767                       # Total number of snoops made to the snoop filter.
system.tol3bus.snoop_filter.hit_single_snoops         5767                       # Number of snoops hitting in the snoop filter with a single holder of the requested data.
system.tol3bus.snoop_filter.hit_multi_snoops            0                       # Number of snoops hitting in the snoop filter with multiple (>1) holders of the requested data.
system.tol3bus.pwrStateResidencyTicks::UNDEFINED  92245883500                       # Cumulative time (in ticks) in various power states
system.tol3bus.trans_dist::ReadResp             17724                       # Transaction distribution
system.tol3bus.trans_dist::WritebackDirty        32960                       # Transaction distribution
system.tol3bus.trans_dist::CleanEvict            6020                       # Transaction distribution
system.tol3bus.trans_dist::ReadExReq             6441                       # Transaction distribution
system.tol3bus.trans_dist::ReadExResp            6441                       # Transaction distribution
system.tol3bus.trans_dist::ReadSharedReq        17724                       # Transaction distribution
system.tol3bus.pkt_count_system.l2.mem_side::system.l3.cpu_side        70176                       # Packet count per connected master and slave (bytes)
system.tol3bus.pkt_size_system.l2.mem_side::system.l3.cpu_side      2934208                       # Cumulative packet size per connected master and slave (bytes)
system.tol3bus.snoops                           17134                       # Total snoops (count)
system.tol3bus.snoopTraffic                    721792                       # Total snoop traffic (bytes)
system.tol3bus.snoop_fanout::samples            41299                       # Request fanout histogram
system.tol3bus.snoop_fanout::mean            0.139640                       # Request fanout histogram
system.tol3bus.snoop_fanout::stdev           0.346618                       # Request fanout histogram
system.tol3bus.snoop_fanout::underflows             0      0.00%      0.00% # Request fanout histogram
system.tol3bus.snoop_fanout::0                  35532     86.04%     86.04% # Request fanout histogram
system.tol3bus.snoop_fanout::1                   5767     13.96%    100.00% # Request fanout histogram
system.tol3bus.snoop_fanout::overflows              0      0.00%    100.00% # Request fanout histogram
system.tol3bus.snoop_fanout::min_value              0                       # Request fanout histogram
system.tol3bus.snoop_fanout::max_value              1                       # Request fanout histogram
system.tol3bus.snoop_fanout::total              41299                       # Request fanout histogram
system.tol3bus.reqLayer0.occupancy           44687500                       # Layer occupancy (ticks)
system.tol3bus.reqLayer0.utilization              0.0                       # Layer utilization (%)
system.tol3bus.respLayer0.occupancy          36247500                       # Layer occupancy (ticks)
system.tol3bus.respLayer0.utilization             0.0                       # Layer utilization (%)

---------- End Simulation Statistics   ----------
